*SPEF "ieee 1481-1999"
*DESIGN "user_proj_solar"
*DATE "11:11:11 Fri 11 11, 1111"
*VENDOR "OpenRCX"
*PROGRAM "Parallel Extraction"
*VERSION "1.0"
*DESIGN_FLOW "NAME_SCOPE LOCAL" "PIN_CAP NONE"
*DIVIDER /
*DELIMITER :
*BUS_DELIMITER []
*T_UNIT 1 NS
*C_UNIT 1 PF
*R_UNIT 1 OHM
*L_UNIT 1 HENRY

*NAME_MAP
*1 io_in[0]
*2 io_in[10]
*3 io_in[11]
*4 io_in[12]
*5 io_in[13]
*6 io_in[14]
*7 io_in[15]
*8 io_in[16]
*9 io_in[17]
*10 io_in[18]
*11 io_in[19]
*12 io_in[1]
*13 io_in[20]
*14 io_in[21]
*15 io_in[22]
*16 io_in[23]
*17 io_in[2]
*18 io_in[3]
*19 io_in[4]
*20 io_in[5]
*21 io_in[6]
*22 io_in[7]
*23 io_in[8]
*24 io_in[9]
*25 net40
*26 net38
*27 net39
*28 net32
*29 net33
*30 net41
*31 net34
*32 net35
*33 net42
*34 net36
*35 net37
*36 net43
*37 io_out[0]
*38 io_out[10]
*39 io_out[11]
*40 io_out[1]
*41 io_out[2]
*42 io_out[3]
*43 io_out[4]
*44 io_out[5]
*45 io_out[6]
*46 io_out[7]
*47 io_out[8]
*48 io_out[9]
*49 net29
*50 net30
*51 net31
*54 wb_clk_i
*55 wb_rst_i
*56 _000_
*57 _001_
*58 _002_
*59 _003_
*60 _004_
*61 _005_
*62 _006_
*63 _007_
*64 _008_
*65 _009_
*66 _010_
*67 _011_
*68 _012_
*69 _013_
*70 _014_
*71 _015_
*72 _016_
*73 _017_
*74 _018_
*75 _019_
*76 _020_
*77 _021_
*78 _022_
*79 _023_
*80 _024_
*81 _025_
*82 _026_
*83 _027_
*84 _028_
*85 _029_
*86 _030_
*87 _031_
*88 _032_
*89 _033_
*90 _034_
*91 _035_
*92 clknet_0_wb_clk_i
*93 clknet_1_0_0_wb_clk_i
*94 clknet_1_1_0_wb_clk_i
*95 clknet_2_0__leaf_wb_clk_i
*96 clknet_2_1__leaf_wb_clk_i
*97 clknet_2_2__leaf_wb_clk_i
*98 clknet_2_3__leaf_wb_clk_i
*99 display_mux\.current_display\[0\]
*100 display_mux\.current_display\[10\]
*101 display_mux\.current_display\[11\]
*102 display_mux\.current_display\[1\]
*103 display_mux\.current_display\[2\]
*104 display_mux\.current_display\[3\]
*105 display_mux\.current_display\[4\]
*106 display_mux\.current_display\[5\]
*107 display_mux\.current_display\[6\]
*108 display_mux\.current_display\[7\]
*109 display_mux\.current_display\[8\]
*110 display_mux\.current_display\[9\]
*111 net1
*112 net10
*113 net11
*114 net12
*115 net13
*116 net14
*117 net15
*118 net16
*119 net17
*120 net18
*121 net19
*122 net2
*123 net20
*124 net21
*125 net22
*126 net23
*127 net24
*128 net25
*129 net26
*130 net27
*131 net28
*132 net3
*133 net4
*134 net44
*135 net45
*136 net46
*137 net47
*138 net48
*139 net49
*140 net5
*141 net50
*142 net51
*143 net52
*144 net53
*145 net54
*146 net55
*147 net56
*148 net57
*149 net58
*150 net59
*151 net6
*152 net60
*153 net61
*154 net62
*155 net63
*156 net64
*157 net65
*158 net66
*159 net67
*160 net68
*161 net69
*162 net7
*163 net70
*164 net71
*165 net72
*166 net73
*167 net74
*168 net75
*169 net76
*170 net77
*171 net78
*172 net79
*173 net8
*174 net80
*175 net81
*176 net82
*177 net83
*178 net84
*179 net85
*180 net86
*181 net87
*182 net88
*183 net89
*184 net9
*185 net90
*186 net91
*187 solar_monitor\.adc_current_out\[0\]
*188 solar_monitor\.adc_current_out\[10\]
*189 solar_monitor\.adc_current_out\[11\]
*190 solar_monitor\.adc_current_out\[1\]
*191 solar_monitor\.adc_current_out\[2\]
*192 solar_monitor\.adc_current_out\[3\]
*193 solar_monitor\.adc_current_out\[4\]
*194 solar_monitor\.adc_current_out\[5\]
*195 solar_monitor\.adc_current_out\[6\]
*196 solar_monitor\.adc_current_out\[7\]
*197 solar_monitor\.adc_current_out\[8\]
*198 solar_monitor\.adc_current_out\[9\]
*199 ANTENNA_1
*200 ANTENNA_10
*201 ANTENNA_100
*202 ANTENNA_101
*203 ANTENNA_102
*204 ANTENNA_103
*205 ANTENNA_104
*206 ANTENNA_105
*207 ANTENNA_106
*208 ANTENNA_107
*209 ANTENNA_108
*210 ANTENNA_109
*211 ANTENNA_11
*212 ANTENNA_110
*213 ANTENNA_111
*214 ANTENNA_112
*215 ANTENNA_113
*216 ANTENNA_114
*217 ANTENNA_115
*218 ANTENNA_116
*219 ANTENNA_117
*220 ANTENNA_118
*221 ANTENNA_12
*222 ANTENNA_13
*223 ANTENNA_14
*224 ANTENNA_15
*225 ANTENNA_16
*226 ANTENNA_17
*227 ANTENNA_18
*228 ANTENNA_19
*229 ANTENNA_2
*230 ANTENNA_20
*231 ANTENNA_21
*232 ANTENNA_22
*233 ANTENNA_23
*234 ANTENNA_24
*235 ANTENNA_25
*236 ANTENNA_26
*237 ANTENNA_27
*238 ANTENNA_28
*239 ANTENNA_29
*240 ANTENNA_3
*241 ANTENNA_30
*242 ANTENNA_31
*243 ANTENNA_32
*244 ANTENNA_33
*245 ANTENNA_34
*246 ANTENNA_35
*247 ANTENNA_36
*248 ANTENNA_37
*249 ANTENNA_38
*250 ANTENNA_39
*251 ANTENNA_4
*252 ANTENNA_40
*253 ANTENNA_41
*254 ANTENNA_42
*255 ANTENNA_43
*256 ANTENNA_44
*257 ANTENNA_45
*258 ANTENNA_46
*259 ANTENNA_47
*260 ANTENNA_48
*261 ANTENNA_49
*262 ANTENNA_5
*263 ANTENNA_50
*264 ANTENNA_51
*265 ANTENNA_52
*266 ANTENNA_53
*267 ANTENNA_54
*268 ANTENNA_55
*269 ANTENNA_56
*270 ANTENNA_57
*271 ANTENNA_58
*272 ANTENNA_59
*273 ANTENNA_6
*274 ANTENNA_60
*275 ANTENNA_61
*276 ANTENNA_62
*277 ANTENNA_63
*278 ANTENNA_64
*279 ANTENNA_65
*280 ANTENNA_66
*281 ANTENNA_67
*282 ANTENNA_68
*283 ANTENNA_69
*284 ANTENNA_7
*285 ANTENNA_70
*286 ANTENNA_71
*287 ANTENNA_72
*288 ANTENNA_73
*289 ANTENNA_74
*290 ANTENNA_75
*291 ANTENNA_76
*292 ANTENNA_77
*293 ANTENNA_78
*294 ANTENNA_79
*295 ANTENNA_8
*296 ANTENNA_80
*297 ANTENNA_81
*298 ANTENNA_82
*299 ANTENNA_83
*300 ANTENNA_84
*301 ANTENNA_85
*302 ANTENNA_86
*303 ANTENNA_87
*304 ANTENNA_88
*305 ANTENNA_89
*306 ANTENNA_9
*307 ANTENNA_90
*308 ANTENNA_91
*309 ANTENNA_92
*310 ANTENNA_93
*311 ANTENNA_94
*312 ANTENNA_95
*313 ANTENNA_96
*314 ANTENNA_97
*315 ANTENNA_98
*316 ANTENNA_99
*317 ANTENNA__036__A
*318 ANTENNA__037__A
*319 ANTENNA__038__A
*320 ANTENNA__039__A
*321 ANTENNA__040__A
*322 ANTENNA__041__A
*323 ANTENNA__042__A
*324 ANTENNA__043__A
*325 ANTENNA__044__A
*326 ANTENNA__045__A
*327 ANTENNA__046__A
*328 ANTENNA__047__A
*329 ANTENNA__048__A
*330 ANTENNA__049__A
*331 ANTENNA__050__A
*332 ANTENNA__051__A
*333 ANTENNA__052__A
*334 ANTENNA__053__A
*335 ANTENNA__054__A
*336 ANTENNA__055__A
*337 ANTENNA__056__A
*338 ANTENNA__057__A
*339 ANTENNA__058__A
*340 ANTENNA__059__A
*341 ANTENNA__060__A
*342 ANTENNA__061__A
*343 ANTENNA__062__A
*344 ANTENNA__063__A
*345 ANTENNA__064__A
*346 ANTENNA__065__A
*347 ANTENNA__066__A
*348 ANTENNA__067__A
*349 ANTENNA__068__A
*350 ANTENNA__069__A
*351 ANTENNA__070__A
*352 ANTENNA__071__A
*353 ANTENNA__072__CLK
*354 ANTENNA__073__CLK
*355 ANTENNA__074__CLK
*356 ANTENNA__075__CLK
*357 ANTENNA__076__CLK
*358 ANTENNA__077__CLK
*359 ANTENNA__078__CLK
*360 ANTENNA__079__CLK
*361 ANTENNA__080__CLK
*362 ANTENNA__081__CLK
*363 ANTENNA__082__CLK
*364 ANTENNA__083__CLK
*365 ANTENNA__084__CLK
*366 ANTENNA__084__D
*367 ANTENNA__085__CLK
*368 ANTENNA__085__D
*369 ANTENNA__086__CLK
*370 ANTENNA__086__D
*371 ANTENNA__087__CLK
*372 ANTENNA__087__D
*373 ANTENNA__088__CLK
*374 ANTENNA__088__D
*375 ANTENNA__089__CLK
*376 ANTENNA__089__D
*377 ANTENNA__090__CLK
*378 ANTENNA__090__D
*379 ANTENNA__091__CLK
*380 ANTENNA__091__D
*381 ANTENNA__092__CLK
*382 ANTENNA__092__D
*383 ANTENNA__093__CLK
*384 ANTENNA__093__D
*385 ANTENNA__094__CLK
*386 ANTENNA__094__D
*387 ANTENNA__095__CLK
*388 ANTENNA__095__D
*389 ANTENNA__096__CLK
*390 ANTENNA__097__CLK
*391 ANTENNA__098__CLK
*392 ANTENNA__099__CLK
*393 ANTENNA__100__CLK
*394 ANTENNA__101__CLK
*395 ANTENNA__102__CLK
*396 ANTENNA__103__CLK
*397 ANTENNA__104__CLK
*398 ANTENNA__105__CLK
*399 ANTENNA__106__CLK
*400 ANTENNA__107__CLK
*401 ANTENNA_clkbuf_1_0_0_wb_clk_i_A
*402 ANTENNA_clkbuf_1_1_0_wb_clk_i_A
*403 ANTENNA_clkbuf_2_0__f_wb_clk_i_A
*404 ANTENNA_clkbuf_2_1__f_wb_clk_i_A
*405 ANTENNA_clkbuf_2_2__f_wb_clk_i_A
*406 ANTENNA_clkbuf_2_3__f_wb_clk_i_A
*407 ANTENNA_fanout26_A
*408 ANTENNA_fanout27_A
*409 ANTENNA_output14_A
*410 ANTENNA_output15_A
*411 ANTENNA_output16_A
*412 ANTENNA_output17_A
*413 ANTENNA_output18_A
*414 ANTENNA_output19_A
*415 ANTENNA_output20_A
*416 ANTENNA_output23_A
*417 ANTENNA_output24_A
*418 ANTENNA_output25_A
*419 ANTENNA_wire28_A
*420 FILLER_0_0_1005
*421 FILLER_0_0_1009
*422 FILLER_0_0_1021
*423 FILLER_0_0_1033
*424 FILLER_0_0_1037
*425 FILLER_0_0_1049
*426 FILLER_0_0_1057
*427 FILLER_0_0_109
*428 FILLER_0_0_113
*429 FILLER_0_0_125
*430 FILLER_0_0_137
*431 FILLER_0_0_141
*432 FILLER_0_0_15
*433 FILLER_0_0_153
*434 FILLER_0_0_165
*435 FILLER_0_0_169
*436 FILLER_0_0_181
*437 FILLER_0_0_193
*438 FILLER_0_0_197
*439 FILLER_0_0_209
*440 FILLER_0_0_221
*441 FILLER_0_0_225
*442 FILLER_0_0_237
*443 FILLER_0_0_249
*444 FILLER_0_0_253
*445 FILLER_0_0_265
*446 FILLER_0_0_27
*447 FILLER_0_0_277
*448 FILLER_0_0_281
*449 FILLER_0_0_29
*450 FILLER_0_0_293
*451 FILLER_0_0_3
*452 FILLER_0_0_305
*453 FILLER_0_0_309
*454 FILLER_0_0_331
*455 FILLER_0_0_335
*456 FILLER_0_0_337
*457 FILLER_0_0_349
*458 FILLER_0_0_361
*459 FILLER_0_0_365
*460 FILLER_0_0_377
*461 FILLER_0_0_389
*462 FILLER_0_0_393
*463 FILLER_0_0_405
*464 FILLER_0_0_41
*465 FILLER_0_0_417
*466 FILLER_0_0_421
*467 FILLER_0_0_433
*468 FILLER_0_0_445
*469 FILLER_0_0_449
*470 FILLER_0_0_461
*471 FILLER_0_0_473
*472 FILLER_0_0_477
*473 FILLER_0_0_489
*474 FILLER_0_0_501
*475 FILLER_0_0_505
*476 FILLER_0_0_517
*477 FILLER_0_0_529
*478 FILLER_0_0_53
*479 FILLER_0_0_536
*480 FILLER_0_0_548
*481 FILLER_0_0_561
*482 FILLER_0_0_57
*483 FILLER_0_0_573
*484 FILLER_0_0_585
*485 FILLER_0_0_589
*486 FILLER_0_0_601
*487 FILLER_0_0_613
*488 FILLER_0_0_617
*489 FILLER_0_0_629
*490 FILLER_0_0_641
*491 FILLER_0_0_645
*492 FILLER_0_0_657
*493 FILLER_0_0_669
*494 FILLER_0_0_673
*495 FILLER_0_0_685
*496 FILLER_0_0_69
*497 FILLER_0_0_697
*498 FILLER_0_0_701
*499 FILLER_0_0_713
*500 FILLER_0_0_725
*501 FILLER_0_0_729
*502 FILLER_0_0_741
*503 FILLER_0_0_752
*504 FILLER_0_0_757
*505 FILLER_0_0_769
*506 FILLER_0_0_781
*507 FILLER_0_0_785
*508 FILLER_0_0_797
*509 FILLER_0_0_809
*510 FILLER_0_0_81
*511 FILLER_0_0_813
*512 FILLER_0_0_825
*513 FILLER_0_0_837
*514 FILLER_0_0_841
*515 FILLER_0_0_85
*516 FILLER_0_0_853
*517 FILLER_0_0_865
*518 FILLER_0_0_869
*519 FILLER_0_0_881
*520 FILLER_0_0_893
*521 FILLER_0_0_897
*522 FILLER_0_0_909
*523 FILLER_0_0_921
*524 FILLER_0_0_925
*525 FILLER_0_0_937
*526 FILLER_0_0_949
*527 FILLER_0_0_953
*528 FILLER_0_0_965
*529 FILLER_0_0_969
*530 FILLER_0_0_97
*531 FILLER_0_0_977
*532 FILLER_0_0_981
*533 FILLER_0_0_993
*534 FILLER_0_1000_1005
*535 FILLER_0_1000_1017
*536 FILLER_0_1000_1029
*537 FILLER_0_1000_1035
*538 FILLER_0_1000_1037
*539 FILLER_0_1000_1049
*540 FILLER_0_1000_1057
*541 FILLER_0_1000_109
*542 FILLER_0_1000_121
*543 FILLER_0_1000_133
*544 FILLER_0_1000_139
*545 FILLER_0_1000_141
*546 FILLER_0_1000_15
*547 FILLER_0_1000_153
*548 FILLER_0_1000_165
*549 FILLER_0_1000_177
*550 FILLER_0_1000_189
*551 FILLER_0_1000_195
*552 FILLER_0_1000_197
*553 FILLER_0_1000_209
*554 FILLER_0_1000_221
*555 FILLER_0_1000_233
*556 FILLER_0_1000_245
*557 FILLER_0_1000_251
*558 FILLER_0_1000_253
*559 FILLER_0_1000_265
*560 FILLER_0_1000_27
*561 FILLER_0_1000_277
*562 FILLER_0_1000_289
*563 FILLER_0_1000_29
*564 FILLER_0_1000_3
*565 FILLER_0_1000_301
*566 FILLER_0_1000_307
*567 FILLER_0_1000_309
*568 FILLER_0_1000_321
*569 FILLER_0_1000_333
*570 FILLER_0_1000_345
*571 FILLER_0_1000_357
*572 FILLER_0_1000_363
*573 FILLER_0_1000_365
*574 FILLER_0_1000_377
*575 FILLER_0_1000_389
*576 FILLER_0_1000_401
*577 FILLER_0_1000_41
*578 FILLER_0_1000_413
*579 FILLER_0_1000_419
*580 FILLER_0_1000_421
*581 FILLER_0_1000_433
*582 FILLER_0_1000_445
*583 FILLER_0_1000_457
*584 FILLER_0_1000_469
*585 FILLER_0_1000_475
*586 FILLER_0_1000_477
*587 FILLER_0_1000_489
*588 FILLER_0_1000_501
*589 FILLER_0_1000_513
*590 FILLER_0_1000_525
*591 FILLER_0_1000_53
*592 FILLER_0_1000_531
*593 FILLER_0_1000_533
*594 FILLER_0_1000_545
*595 FILLER_0_1000_557
*596 FILLER_0_1000_569
*597 FILLER_0_1000_581
*598 FILLER_0_1000_587
*599 FILLER_0_1000_589
*600 FILLER_0_1000_601
*601 FILLER_0_1000_613
*602 FILLER_0_1000_625
*603 FILLER_0_1000_637
*604 FILLER_0_1000_643
*605 FILLER_0_1000_645
*606 FILLER_0_1000_65
*607 FILLER_0_1000_657
*608 FILLER_0_1000_669
*609 FILLER_0_1000_681
*610 FILLER_0_1000_693
*611 FILLER_0_1000_699
*612 FILLER_0_1000_701
*613 FILLER_0_1000_713
*614 FILLER_0_1000_725
*615 FILLER_0_1000_737
*616 FILLER_0_1000_749
*617 FILLER_0_1000_755
*618 FILLER_0_1000_757
*619 FILLER_0_1000_769
*620 FILLER_0_1000_77
*621 FILLER_0_1000_781
*622 FILLER_0_1000_793
*623 FILLER_0_1000_805
*624 FILLER_0_1000_811
*625 FILLER_0_1000_813
*626 FILLER_0_1000_825
*627 FILLER_0_1000_83
*628 FILLER_0_1000_837
*629 FILLER_0_1000_849
*630 FILLER_0_1000_85
*631 FILLER_0_1000_861
*632 FILLER_0_1000_867
*633 FILLER_0_1000_869
*634 FILLER_0_1000_881
*635 FILLER_0_1000_893
*636 FILLER_0_1000_905
*637 FILLER_0_1000_917
*638 FILLER_0_1000_923
*639 FILLER_0_1000_925
*640 FILLER_0_1000_937
*641 FILLER_0_1000_949
*642 FILLER_0_1000_961
*643 FILLER_0_1000_97
*644 FILLER_0_1000_973
*645 FILLER_0_1000_979
*646 FILLER_0_1000_981
*647 FILLER_0_1000_993
*648 FILLER_0_1001_1001
*649 FILLER_0_1001_1007
*650 FILLER_0_1001_1009
*651 FILLER_0_1001_1021
*652 FILLER_0_1001_1033
*653 FILLER_0_1001_1045
*654 FILLER_0_1001_105
*655 FILLER_0_1001_1057
*656 FILLER_0_1001_111
*657 FILLER_0_1001_113
*658 FILLER_0_1001_125
*659 FILLER_0_1001_137
*660 FILLER_0_1001_149
*661 FILLER_0_1001_15
*662 FILLER_0_1001_161
*663 FILLER_0_1001_167
*664 FILLER_0_1001_169
*665 FILLER_0_1001_181
*666 FILLER_0_1001_193
*667 FILLER_0_1001_205
*668 FILLER_0_1001_217
*669 FILLER_0_1001_223
*670 FILLER_0_1001_225
*671 FILLER_0_1001_237
*672 FILLER_0_1001_249
*673 FILLER_0_1001_261
*674 FILLER_0_1001_27
*675 FILLER_0_1001_273
*676 FILLER_0_1001_279
*677 FILLER_0_1001_281
*678 FILLER_0_1001_293
*679 FILLER_0_1001_3
*680 FILLER_0_1001_305
*681 FILLER_0_1001_317
*682 FILLER_0_1001_329
*683 FILLER_0_1001_335
*684 FILLER_0_1001_337
*685 FILLER_0_1001_349
*686 FILLER_0_1001_361
*687 FILLER_0_1001_373
*688 FILLER_0_1001_385
*689 FILLER_0_1001_39
*690 FILLER_0_1001_391
*691 FILLER_0_1001_393
*692 FILLER_0_1001_405
*693 FILLER_0_1001_417
*694 FILLER_0_1001_429
*695 FILLER_0_1001_441
*696 FILLER_0_1001_447
*697 FILLER_0_1001_449
*698 FILLER_0_1001_461
*699 FILLER_0_1001_473
*700 FILLER_0_1001_485
*701 FILLER_0_1001_497
*702 FILLER_0_1001_503
*703 FILLER_0_1001_505
*704 FILLER_0_1001_51
*705 FILLER_0_1001_517
*706 FILLER_0_1001_529
*707 FILLER_0_1001_541
*708 FILLER_0_1001_55
*709 FILLER_0_1001_553
*710 FILLER_0_1001_559
*711 FILLER_0_1001_561
*712 FILLER_0_1001_57
*713 FILLER_0_1001_573
*714 FILLER_0_1001_585
*715 FILLER_0_1001_597
*716 FILLER_0_1001_609
*717 FILLER_0_1001_615
*718 FILLER_0_1001_617
*719 FILLER_0_1001_629
*720 FILLER_0_1001_641
*721 FILLER_0_1001_653
*722 FILLER_0_1001_665
*723 FILLER_0_1001_671
*724 FILLER_0_1001_673
*725 FILLER_0_1001_685
*726 FILLER_0_1001_69
*727 FILLER_0_1001_697
*728 FILLER_0_1001_709
*729 FILLER_0_1001_721
*730 FILLER_0_1001_727
*731 FILLER_0_1001_729
*732 FILLER_0_1001_741
*733 FILLER_0_1001_753
*734 FILLER_0_1001_765
*735 FILLER_0_1001_777
*736 FILLER_0_1001_783
*737 FILLER_0_1001_785
*738 FILLER_0_1001_797
*739 FILLER_0_1001_809
*740 FILLER_0_1001_81
*741 FILLER_0_1001_821
*742 FILLER_0_1001_833
*743 FILLER_0_1001_839
*744 FILLER_0_1001_841
*745 FILLER_0_1001_853
*746 FILLER_0_1001_865
*747 FILLER_0_1001_877
*748 FILLER_0_1001_889
*749 FILLER_0_1001_895
*750 FILLER_0_1001_897
*751 FILLER_0_1001_909
*752 FILLER_0_1001_921
*753 FILLER_0_1001_93
*754 FILLER_0_1001_933
*755 FILLER_0_1001_945
*756 FILLER_0_1001_951
*757 FILLER_0_1001_953
*758 FILLER_0_1001_965
*759 FILLER_0_1001_977
*760 FILLER_0_1001_989
*761 FILLER_0_1002_1005
*762 FILLER_0_1002_1017
*763 FILLER_0_1002_1029
*764 FILLER_0_1002_1035
*765 FILLER_0_1002_1037
*766 FILLER_0_1002_1049
*767 FILLER_0_1002_1057
*768 FILLER_0_1002_109
*769 FILLER_0_1002_121
*770 FILLER_0_1002_133
*771 FILLER_0_1002_139
*772 FILLER_0_1002_141
*773 FILLER_0_1002_15
*774 FILLER_0_1002_153
*775 FILLER_0_1002_165
*776 FILLER_0_1002_177
*777 FILLER_0_1002_189
*778 FILLER_0_1002_195
*779 FILLER_0_1002_197
*780 FILLER_0_1002_209
*781 FILLER_0_1002_221
*782 FILLER_0_1002_233
*783 FILLER_0_1002_245
*784 FILLER_0_1002_251
*785 FILLER_0_1002_253
*786 FILLER_0_1002_265
*787 FILLER_0_1002_27
*788 FILLER_0_1002_277
*789 FILLER_0_1002_289
*790 FILLER_0_1002_29
*791 FILLER_0_1002_3
*792 FILLER_0_1002_301
*793 FILLER_0_1002_307
*794 FILLER_0_1002_309
*795 FILLER_0_1002_321
*796 FILLER_0_1002_333
*797 FILLER_0_1002_345
*798 FILLER_0_1002_357
*799 FILLER_0_1002_363
*800 FILLER_0_1002_365
*801 FILLER_0_1002_377
*802 FILLER_0_1002_389
*803 FILLER_0_1002_401
*804 FILLER_0_1002_41
*805 FILLER_0_1002_413
*806 FILLER_0_1002_419
*807 FILLER_0_1002_421
*808 FILLER_0_1002_433
*809 FILLER_0_1002_445
*810 FILLER_0_1002_457
*811 FILLER_0_1002_469
*812 FILLER_0_1002_475
*813 FILLER_0_1002_477
*814 FILLER_0_1002_489
*815 FILLER_0_1002_501
*816 FILLER_0_1002_513
*817 FILLER_0_1002_525
*818 FILLER_0_1002_53
*819 FILLER_0_1002_531
*820 FILLER_0_1002_533
*821 FILLER_0_1002_545
*822 FILLER_0_1002_557
*823 FILLER_0_1002_569
*824 FILLER_0_1002_581
*825 FILLER_0_1002_587
*826 FILLER_0_1002_589
*827 FILLER_0_1002_601
*828 FILLER_0_1002_613
*829 FILLER_0_1002_625
*830 FILLER_0_1002_637
*831 FILLER_0_1002_643
*832 FILLER_0_1002_645
*833 FILLER_0_1002_65
*834 FILLER_0_1002_657
*835 FILLER_0_1002_669
*836 FILLER_0_1002_681
*837 FILLER_0_1002_693
*838 FILLER_0_1002_699
*839 FILLER_0_1002_701
*840 FILLER_0_1002_713
*841 FILLER_0_1002_725
*842 FILLER_0_1002_737
*843 FILLER_0_1002_749
*844 FILLER_0_1002_755
*845 FILLER_0_1002_757
*846 FILLER_0_1002_769
*847 FILLER_0_1002_77
*848 FILLER_0_1002_781
*849 FILLER_0_1002_793
*850 FILLER_0_1002_805
*851 FILLER_0_1002_811
*852 FILLER_0_1002_813
*853 FILLER_0_1002_825
*854 FILLER_0_1002_83
*855 FILLER_0_1002_837
*856 FILLER_0_1002_849
*857 FILLER_0_1002_85
*858 FILLER_0_1002_861
*859 FILLER_0_1002_867
*860 FILLER_0_1002_869
*861 FILLER_0_1002_881
*862 FILLER_0_1002_893
*863 FILLER_0_1002_905
*864 FILLER_0_1002_917
*865 FILLER_0_1002_923
*866 FILLER_0_1002_925
*867 FILLER_0_1002_937
*868 FILLER_0_1002_949
*869 FILLER_0_1002_961
*870 FILLER_0_1002_97
*871 FILLER_0_1002_973
*872 FILLER_0_1002_979
*873 FILLER_0_1002_981
*874 FILLER_0_1002_993
*875 FILLER_0_1003_1001
*876 FILLER_0_1003_1007
*877 FILLER_0_1003_1009
*878 FILLER_0_1003_1021
*879 FILLER_0_1003_1033
*880 FILLER_0_1003_1045
*881 FILLER_0_1003_105
*882 FILLER_0_1003_1057
*883 FILLER_0_1003_111
*884 FILLER_0_1003_113
*885 FILLER_0_1003_125
*886 FILLER_0_1003_137
*887 FILLER_0_1003_149
*888 FILLER_0_1003_15
*889 FILLER_0_1003_161
*890 FILLER_0_1003_167
*891 FILLER_0_1003_169
*892 FILLER_0_1003_181
*893 FILLER_0_1003_193
*894 FILLER_0_1003_205
*895 FILLER_0_1003_217
*896 FILLER_0_1003_223
*897 FILLER_0_1003_225
*898 FILLER_0_1003_237
*899 FILLER_0_1003_249
*900 FILLER_0_1003_261
*901 FILLER_0_1003_27
*902 FILLER_0_1003_273
*903 FILLER_0_1003_279
*904 FILLER_0_1003_281
*905 FILLER_0_1003_293
*906 FILLER_0_1003_3
*907 FILLER_0_1003_305
*908 FILLER_0_1003_317
*909 FILLER_0_1003_329
*910 FILLER_0_1003_335
*911 FILLER_0_1003_337
*912 FILLER_0_1003_349
*913 FILLER_0_1003_361
*914 FILLER_0_1003_373
*915 FILLER_0_1003_385
*916 FILLER_0_1003_39
*917 FILLER_0_1003_391
*918 FILLER_0_1003_393
*919 FILLER_0_1003_405
*920 FILLER_0_1003_417
*921 FILLER_0_1003_429
*922 FILLER_0_1003_441
*923 FILLER_0_1003_447
*924 FILLER_0_1003_449
*925 FILLER_0_1003_461
*926 FILLER_0_1003_473
*927 FILLER_0_1003_485
*928 FILLER_0_1003_497
*929 FILLER_0_1003_503
*930 FILLER_0_1003_505
*931 FILLER_0_1003_51
*932 FILLER_0_1003_517
*933 FILLER_0_1003_529
*934 FILLER_0_1003_541
*935 FILLER_0_1003_55
*936 FILLER_0_1003_553
*937 FILLER_0_1003_559
*938 FILLER_0_1003_561
*939 FILLER_0_1003_57
*940 FILLER_0_1003_573
*941 FILLER_0_1003_585
*942 FILLER_0_1003_597
*943 FILLER_0_1003_609
*944 FILLER_0_1003_615
*945 FILLER_0_1003_617
*946 FILLER_0_1003_629
*947 FILLER_0_1003_641
*948 FILLER_0_1003_653
*949 FILLER_0_1003_665
*950 FILLER_0_1003_671
*951 FILLER_0_1003_673
*952 FILLER_0_1003_685
*953 FILLER_0_1003_69
*954 FILLER_0_1003_697
*955 FILLER_0_1003_709
*956 FILLER_0_1003_721
*957 FILLER_0_1003_727
*958 FILLER_0_1003_729
*959 FILLER_0_1003_741
*960 FILLER_0_1003_753
*961 FILLER_0_1003_765
*962 FILLER_0_1003_777
*963 FILLER_0_1003_783
*964 FILLER_0_1003_785
*965 FILLER_0_1003_797
*966 FILLER_0_1003_809
*967 FILLER_0_1003_81
*968 FILLER_0_1003_821
*969 FILLER_0_1003_833
*970 FILLER_0_1003_839
*971 FILLER_0_1003_841
*972 FILLER_0_1003_853
*973 FILLER_0_1003_865
*974 FILLER_0_1003_877
*975 FILLER_0_1003_889
*976 FILLER_0_1003_895
*977 FILLER_0_1003_897
*978 FILLER_0_1003_909
*979 FILLER_0_1003_921
*980 FILLER_0_1003_93
*981 FILLER_0_1003_933
*982 FILLER_0_1003_945
*983 FILLER_0_1003_951
*984 FILLER_0_1003_953
*985 FILLER_0_1003_965
*986 FILLER_0_1003_977
*987 FILLER_0_1003_989
*988 FILLER_0_1004_1005
*989 FILLER_0_1004_1017
*990 FILLER_0_1004_1029
*991 FILLER_0_1004_1035
*992 FILLER_0_1004_1037
*993 FILLER_0_1004_1049
*994 FILLER_0_1004_1057
*995 FILLER_0_1004_109
*996 FILLER_0_1004_121
*997 FILLER_0_1004_133
*998 FILLER_0_1004_139
*999 FILLER_0_1004_141
*1000 FILLER_0_1004_15
*1001 FILLER_0_1004_153
*1002 FILLER_0_1004_165
*1003 FILLER_0_1004_177
*1004 FILLER_0_1004_189
*1005 FILLER_0_1004_195
*1006 FILLER_0_1004_197
*1007 FILLER_0_1004_209
*1008 FILLER_0_1004_221
*1009 FILLER_0_1004_233
*1010 FILLER_0_1004_245
*1011 FILLER_0_1004_251
*1012 FILLER_0_1004_253
*1013 FILLER_0_1004_265
*1014 FILLER_0_1004_27
*1015 FILLER_0_1004_277
*1016 FILLER_0_1004_289
*1017 FILLER_0_1004_29
*1018 FILLER_0_1004_3
*1019 FILLER_0_1004_301
*1020 FILLER_0_1004_307
*1021 FILLER_0_1004_309
*1022 FILLER_0_1004_321
*1023 FILLER_0_1004_333
*1024 FILLER_0_1004_345
*1025 FILLER_0_1004_357
*1026 FILLER_0_1004_363
*1027 FILLER_0_1004_365
*1028 FILLER_0_1004_377
*1029 FILLER_0_1004_389
*1030 FILLER_0_1004_401
*1031 FILLER_0_1004_41
*1032 FILLER_0_1004_413
*1033 FILLER_0_1004_419
*1034 FILLER_0_1004_421
*1035 FILLER_0_1004_433
*1036 FILLER_0_1004_445
*1037 FILLER_0_1004_457
*1038 FILLER_0_1004_469
*1039 FILLER_0_1004_475
*1040 FILLER_0_1004_477
*1041 FILLER_0_1004_489
*1042 FILLER_0_1004_501
*1043 FILLER_0_1004_513
*1044 FILLER_0_1004_525
*1045 FILLER_0_1004_53
*1046 FILLER_0_1004_531
*1047 FILLER_0_1004_533
*1048 FILLER_0_1004_545
*1049 FILLER_0_1004_557
*1050 FILLER_0_1004_569
*1051 FILLER_0_1004_581
*1052 FILLER_0_1004_587
*1053 FILLER_0_1004_589
*1054 FILLER_0_1004_601
*1055 FILLER_0_1004_613
*1056 FILLER_0_1004_625
*1057 FILLER_0_1004_637
*1058 FILLER_0_1004_643
*1059 FILLER_0_1004_645
*1060 FILLER_0_1004_65
*1061 FILLER_0_1004_657
*1062 FILLER_0_1004_669
*1063 FILLER_0_1004_681
*1064 FILLER_0_1004_693
*1065 FILLER_0_1004_699
*1066 FILLER_0_1004_701
*1067 FILLER_0_1004_713
*1068 FILLER_0_1004_725
*1069 FILLER_0_1004_737
*1070 FILLER_0_1004_749
*1071 FILLER_0_1004_755
*1072 FILLER_0_1004_757
*1073 FILLER_0_1004_769
*1074 FILLER_0_1004_77
*1075 FILLER_0_1004_781
*1076 FILLER_0_1004_793
*1077 FILLER_0_1004_805
*1078 FILLER_0_1004_811
*1079 FILLER_0_1004_813
*1080 FILLER_0_1004_825
*1081 FILLER_0_1004_83
*1082 FILLER_0_1004_837
*1083 FILLER_0_1004_849
*1084 FILLER_0_1004_85
*1085 FILLER_0_1004_861
*1086 FILLER_0_1004_867
*1087 FILLER_0_1004_869
*1088 FILLER_0_1004_881
*1089 FILLER_0_1004_893
*1090 FILLER_0_1004_905
*1091 FILLER_0_1004_917
*1092 FILLER_0_1004_923
*1093 FILLER_0_1004_925
*1094 FILLER_0_1004_937
*1095 FILLER_0_1004_949
*1096 FILLER_0_1004_961
*1097 FILLER_0_1004_97
*1098 FILLER_0_1004_973
*1099 FILLER_0_1004_979
*1100 FILLER_0_1004_981
*1101 FILLER_0_1004_993
*1102 FILLER_0_1005_1001
*1103 FILLER_0_1005_1007
*1104 FILLER_0_1005_1009
*1105 FILLER_0_1005_1021
*1106 FILLER_0_1005_1033
*1107 FILLER_0_1005_1045
*1108 FILLER_0_1005_105
*1109 FILLER_0_1005_1057
*1110 FILLER_0_1005_111
*1111 FILLER_0_1005_113
*1112 FILLER_0_1005_125
*1113 FILLER_0_1005_137
*1114 FILLER_0_1005_149
*1115 FILLER_0_1005_15
*1116 FILLER_0_1005_161
*1117 FILLER_0_1005_167
*1118 FILLER_0_1005_169
*1119 FILLER_0_1005_181
*1120 FILLER_0_1005_193
*1121 FILLER_0_1005_205
*1122 FILLER_0_1005_217
*1123 FILLER_0_1005_223
*1124 FILLER_0_1005_225
*1125 FILLER_0_1005_237
*1126 FILLER_0_1005_249
*1127 FILLER_0_1005_261
*1128 FILLER_0_1005_27
*1129 FILLER_0_1005_273
*1130 FILLER_0_1005_279
*1131 FILLER_0_1005_281
*1132 FILLER_0_1005_293
*1133 FILLER_0_1005_3
*1134 FILLER_0_1005_305
*1135 FILLER_0_1005_317
*1136 FILLER_0_1005_329
*1137 FILLER_0_1005_335
*1138 FILLER_0_1005_337
*1139 FILLER_0_1005_349
*1140 FILLER_0_1005_361
*1141 FILLER_0_1005_373
*1142 FILLER_0_1005_385
*1143 FILLER_0_1005_39
*1144 FILLER_0_1005_391
*1145 FILLER_0_1005_393
*1146 FILLER_0_1005_405
*1147 FILLER_0_1005_417
*1148 FILLER_0_1005_429
*1149 FILLER_0_1005_441
*1150 FILLER_0_1005_447
*1151 FILLER_0_1005_449
*1152 FILLER_0_1005_461
*1153 FILLER_0_1005_473
*1154 FILLER_0_1005_485
*1155 FILLER_0_1005_497
*1156 FILLER_0_1005_503
*1157 FILLER_0_1005_505
*1158 FILLER_0_1005_51
*1159 FILLER_0_1005_517
*1160 FILLER_0_1005_529
*1161 FILLER_0_1005_541
*1162 FILLER_0_1005_55
*1163 FILLER_0_1005_553
*1164 FILLER_0_1005_559
*1165 FILLER_0_1005_561
*1166 FILLER_0_1005_57
*1167 FILLER_0_1005_573
*1168 FILLER_0_1005_585
*1169 FILLER_0_1005_597
*1170 FILLER_0_1005_609
*1171 FILLER_0_1005_615
*1172 FILLER_0_1005_617
*1173 FILLER_0_1005_629
*1174 FILLER_0_1005_641
*1175 FILLER_0_1005_653
*1176 FILLER_0_1005_665
*1177 FILLER_0_1005_671
*1178 FILLER_0_1005_673
*1179 FILLER_0_1005_685
*1180 FILLER_0_1005_69
*1181 FILLER_0_1005_697
*1182 FILLER_0_1005_709
*1183 FILLER_0_1005_721
*1184 FILLER_0_1005_727
*1185 FILLER_0_1005_729
*1186 FILLER_0_1005_741
*1187 FILLER_0_1005_753
*1188 FILLER_0_1005_765
*1189 FILLER_0_1005_777
*1190 FILLER_0_1005_783
*1191 FILLER_0_1005_785
*1192 FILLER_0_1005_797
*1193 FILLER_0_1005_809
*1194 FILLER_0_1005_81
*1195 FILLER_0_1005_821
*1196 FILLER_0_1005_833
*1197 FILLER_0_1005_839
*1198 FILLER_0_1005_841
*1199 FILLER_0_1005_853
*1200 FILLER_0_1005_865
*1201 FILLER_0_1005_877
*1202 FILLER_0_1005_889
*1203 FILLER_0_1005_895
*1204 FILLER_0_1005_897
*1205 FILLER_0_1005_909
*1206 FILLER_0_1005_921
*1207 FILLER_0_1005_93
*1208 FILLER_0_1005_933
*1209 FILLER_0_1005_945
*1210 FILLER_0_1005_951
*1211 FILLER_0_1005_953
*1212 FILLER_0_1005_965
*1213 FILLER_0_1005_977
*1214 FILLER_0_1005_989
*1215 FILLER_0_1006_1005
*1216 FILLER_0_1006_1017
*1217 FILLER_0_1006_1029
*1218 FILLER_0_1006_1035
*1219 FILLER_0_1006_1037
*1220 FILLER_0_1006_1049
*1221 FILLER_0_1006_1057
*1222 FILLER_0_1006_109
*1223 FILLER_0_1006_121
*1224 FILLER_0_1006_133
*1225 FILLER_0_1006_139
*1226 FILLER_0_1006_141
*1227 FILLER_0_1006_15
*1228 FILLER_0_1006_153
*1229 FILLER_0_1006_165
*1230 FILLER_0_1006_177
*1231 FILLER_0_1006_189
*1232 FILLER_0_1006_195
*1233 FILLER_0_1006_197
*1234 FILLER_0_1006_209
*1235 FILLER_0_1006_221
*1236 FILLER_0_1006_233
*1237 FILLER_0_1006_245
*1238 FILLER_0_1006_251
*1239 FILLER_0_1006_253
*1240 FILLER_0_1006_265
*1241 FILLER_0_1006_27
*1242 FILLER_0_1006_277
*1243 FILLER_0_1006_289
*1244 FILLER_0_1006_29
*1245 FILLER_0_1006_3
*1246 FILLER_0_1006_301
*1247 FILLER_0_1006_307
*1248 FILLER_0_1006_309
*1249 FILLER_0_1006_321
*1250 FILLER_0_1006_333
*1251 FILLER_0_1006_345
*1252 FILLER_0_1006_357
*1253 FILLER_0_1006_363
*1254 FILLER_0_1006_365
*1255 FILLER_0_1006_377
*1256 FILLER_0_1006_389
*1257 FILLER_0_1006_401
*1258 FILLER_0_1006_41
*1259 FILLER_0_1006_413
*1260 FILLER_0_1006_419
*1261 FILLER_0_1006_421
*1262 FILLER_0_1006_433
*1263 FILLER_0_1006_445
*1264 FILLER_0_1006_457
*1265 FILLER_0_1006_469
*1266 FILLER_0_1006_475
*1267 FILLER_0_1006_477
*1268 FILLER_0_1006_489
*1269 FILLER_0_1006_501
*1270 FILLER_0_1006_513
*1271 FILLER_0_1006_525
*1272 FILLER_0_1006_53
*1273 FILLER_0_1006_531
*1274 FILLER_0_1006_533
*1275 FILLER_0_1006_545
*1276 FILLER_0_1006_557
*1277 FILLER_0_1006_569
*1278 FILLER_0_1006_581
*1279 FILLER_0_1006_587
*1280 FILLER_0_1006_589
*1281 FILLER_0_1006_601
*1282 FILLER_0_1006_613
*1283 FILLER_0_1006_625
*1284 FILLER_0_1006_637
*1285 FILLER_0_1006_643
*1286 FILLER_0_1006_645
*1287 FILLER_0_1006_65
*1288 FILLER_0_1006_657
*1289 FILLER_0_1006_669
*1290 FILLER_0_1006_681
*1291 FILLER_0_1006_693
*1292 FILLER_0_1006_699
*1293 FILLER_0_1006_701
*1294 FILLER_0_1006_713
*1295 FILLER_0_1006_725
*1296 FILLER_0_1006_737
*1297 FILLER_0_1006_749
*1298 FILLER_0_1006_755
*1299 FILLER_0_1006_757
*1300 FILLER_0_1006_769
*1301 FILLER_0_1006_77
*1302 FILLER_0_1006_781
*1303 FILLER_0_1006_793
*1304 FILLER_0_1006_805
*1305 FILLER_0_1006_811
*1306 FILLER_0_1006_813
*1307 FILLER_0_1006_825
*1308 FILLER_0_1006_83
*1309 FILLER_0_1006_837
*1310 FILLER_0_1006_849
*1311 FILLER_0_1006_85
*1312 FILLER_0_1006_861
*1313 FILLER_0_1006_867
*1314 FILLER_0_1006_869
*1315 FILLER_0_1006_881
*1316 FILLER_0_1006_893
*1317 FILLER_0_1006_905
*1318 FILLER_0_1006_917
*1319 FILLER_0_1006_923
*1320 FILLER_0_1006_925
*1321 FILLER_0_1006_937
*1322 FILLER_0_1006_949
*1323 FILLER_0_1006_961
*1324 FILLER_0_1006_97
*1325 FILLER_0_1006_973
*1326 FILLER_0_1006_979
*1327 FILLER_0_1006_981
*1328 FILLER_0_1006_993
*1329 FILLER_0_1007_1001
*1330 FILLER_0_1007_1007
*1331 FILLER_0_1007_1009
*1332 FILLER_0_1007_1021
*1333 FILLER_0_1007_1033
*1334 FILLER_0_1007_1045
*1335 FILLER_0_1007_105
*1336 FILLER_0_1007_1057
*1337 FILLER_0_1007_111
*1338 FILLER_0_1007_113
*1339 FILLER_0_1007_125
*1340 FILLER_0_1007_137
*1341 FILLER_0_1007_149
*1342 FILLER_0_1007_15
*1343 FILLER_0_1007_161
*1344 FILLER_0_1007_167
*1345 FILLER_0_1007_169
*1346 FILLER_0_1007_181
*1347 FILLER_0_1007_193
*1348 FILLER_0_1007_205
*1349 FILLER_0_1007_217
*1350 FILLER_0_1007_223
*1351 FILLER_0_1007_225
*1352 FILLER_0_1007_237
*1353 FILLER_0_1007_249
*1354 FILLER_0_1007_261
*1355 FILLER_0_1007_27
*1356 FILLER_0_1007_273
*1357 FILLER_0_1007_279
*1358 FILLER_0_1007_281
*1359 FILLER_0_1007_293
*1360 FILLER_0_1007_3
*1361 FILLER_0_1007_305
*1362 FILLER_0_1007_317
*1363 FILLER_0_1007_329
*1364 FILLER_0_1007_335
*1365 FILLER_0_1007_337
*1366 FILLER_0_1007_349
*1367 FILLER_0_1007_361
*1368 FILLER_0_1007_373
*1369 FILLER_0_1007_385
*1370 FILLER_0_1007_39
*1371 FILLER_0_1007_391
*1372 FILLER_0_1007_393
*1373 FILLER_0_1007_405
*1374 FILLER_0_1007_417
*1375 FILLER_0_1007_429
*1376 FILLER_0_1007_441
*1377 FILLER_0_1007_447
*1378 FILLER_0_1007_449
*1379 FILLER_0_1007_461
*1380 FILLER_0_1007_473
*1381 FILLER_0_1007_485
*1382 FILLER_0_1007_497
*1383 FILLER_0_1007_503
*1384 FILLER_0_1007_505
*1385 FILLER_0_1007_51
*1386 FILLER_0_1007_517
*1387 FILLER_0_1007_529
*1388 FILLER_0_1007_541
*1389 FILLER_0_1007_55
*1390 FILLER_0_1007_553
*1391 FILLER_0_1007_559
*1392 FILLER_0_1007_561
*1393 FILLER_0_1007_57