*SPEF "ieee 1481-1999"
*DESIGN "user_proj_solar"
*DATE "11:11:11 Fri 11 11, 1111"
*VENDOR "OpenRCX"
*PROGRAM "Parallel Extraction"
*VERSION "1.0"
*DESIGN_FLOW "NAME_SCOPE LOCAL" "PIN_CAP NONE"
*DIVIDER /
*DELIMITER :
*BUS_DELIMITER []
*T_UNIT 1 NS
*C_UNIT 1 PF
*R_UNIT 1 OHM
*L_UNIT 1 HENRY

*NAME_MAP
*1 io_in[0]
*2 io_in[10]
*3 io_in[11]
*4 io_in[12]
*5 io_in[13]
*6 io_in[14]
*7 io_in[15]
*8 io_in[16]
*9 io_in[17]
*10 io_in[18]
*11 io_in[19]
*12 io_in[1]
*13 io_in[20]
*14 io_in[21]
*15 io_in[22]
*16 io_in[23]
*17 io_in[2]
*18 io_in[3]
*19 io_in[4]
*20 io_in[5]
*21 io_in[6]
*22 io_in[7]
*23 io_in[8]
*24 io_in[9]
*25 net29
*26 net39
*27 net40
*28 net30
*29 net31
*30 net32
*31 net33
*32 net34
*33 net35
*34 net36
*35 net37
*36 net38
*37 io_out[0]
*38 io_out[10]
*39 io_out[11]
*40 io_out[1]
*41 io_out[2]
*42 io_out[3]
*43 io_out[4]
*44 io_out[5]
*45 io_out[6]
*46 io_out[7]
*47 io_out[8]
*48 io_out[9]
*51 wb_clk_i
*52 wb_rst_i
*53 _000_
*54 _001_
*55 _002_
*56 _003_
*57 _004_
*58 _005_
*59 _006_
*60 _007_
*61 _008_
*62 _009_
*63 _010_
*64 _011_
*65 _012_
*66 _013_
*67 _014_
*68 _015_
*69 _016_
*70 _017_
*71 _018_
*72 _019_
*73 _020_
*74 _021_
*75 _022_
*76 _023_
*77 _024_
*78 _025_
*79 _026_
*80 _027_
*81 _028_
*82 _029_
*83 _030_
*84 _031_
*85 _032_
*86 _033_
*87 _034_
*88 _035_
*89 clknet_0_wb_clk_i
*90 clknet_1_0_0_wb_clk_i
*91 clknet_1_1_0_wb_clk_i
*92 clknet_2_0_0_wb_clk_i
*93 clknet_2_1_0_wb_clk_i
*94 clknet_2_2_0_wb_clk_i
*95 clknet_2_3_0_wb_clk_i
*96 display_mux\.voltage_display\[0\]
*97 display_mux\.voltage_display\[10\]
*98 display_mux\.voltage_display\[11\]
*99 display_mux\.voltage_display\[1\]
*100 display_mux\.voltage_display\[2\]
*101 display_mux\.voltage_display\[3\]
*102 display_mux\.voltage_display\[4\]
*103 display_mux\.voltage_display\[5\]
*104 display_mux\.voltage_display\[6\]
*105 display_mux\.voltage_display\[7\]
*106 display_mux\.voltage_display\[8\]
*107 display_mux\.voltage_display\[9\]
*108 net1
*109 net10
*110 net11
*111 net12
*112 net13
*113 net14
*114 net15
*115 net16
*116 net17
*117 net18
*118 net19
*119 net2
*120 net20
*121 net21
*122 net22
*123 net23
*124 net24
*125 net25
*126 net26
*127 net27
*128 net28
*129 net3
*130 net4
*131 net41
*132 net42
*133 net43
*134 net44
*135 net45
*136 net46
*137 net47
*138 net48
*139 net49
*140 net5
*141 net50
*142 net51
*143 net52
*144 net53
*145 net54
*146 net55
*147 net56
*148 net57
*149 net58
*150 net59
*151 net6
*152 net60
*153 net61
*154 net62
*155 net63
*156 net64
*157 net65
*158 net66
*159 net67
*160 net68
*161 net69
*162 net7
*163 net70
*164 net71
*165 net72
*166 net73
*167 net74
*168 net75
*169 net76
*170 net77
*171 net78
*172 net79
*173 net8
*174 net80
*175 net81
*176 net82
*177 net83
*178 net84
*179 net85
*180 net86
*181 net87
*182 net88
*183 net9
*184 solar_monitor\.adc_module\.voltage_out\[0\]
*185 solar_monitor\.adc_module\.voltage_out\[10\]
*186 solar_monitor\.adc_module\.voltage_out\[11\]
*187 solar_monitor\.adc_module\.voltage_out\[1\]
*188 solar_monitor\.adc_module\.voltage_out\[2\]
*189 solar_monitor\.adc_module\.voltage_out\[3\]
*190 solar_monitor\.adc_module\.voltage_out\[4\]
*191 solar_monitor\.adc_module\.voltage_out\[5\]
*192 solar_monitor\.adc_module\.voltage_out\[6\]
*193 solar_monitor\.adc_module\.voltage_out\[7\]
*194 solar_monitor\.adc_module\.voltage_out\[8\]
*195 solar_monitor\.adc_module\.voltage_out\[9\]
*196 ANTENNA_1
*197 ANTENNA__036__A
*198 ANTENNA__037__A
*199 ANTENNA__038__A
*200 ANTENNA__039__A
*201 ANTENNA__040__A
*202 ANTENNA__041__A
*203 ANTENNA__042__A
*204 ANTENNA__043__A
*205 ANTENNA__044__A
*206 ANTENNA__045__A
*207 ANTENNA__046__A
*208 ANTENNA__047__A
*209 ANTENNA__048__A
*210 ANTENNA__049__A
*211 ANTENNA__050__A
*212 ANTENNA__051__A
*213 ANTENNA__052__A
*214 ANTENNA__053__A
*215 ANTENNA__054__A
*216 ANTENNA__055__A
*217 ANTENNA__056__A
*218 ANTENNA__057__A
*219 ANTENNA__058__A
*220 ANTENNA__059__A
*221 ANTENNA__060__A
*222 ANTENNA__061__A
*223 ANTENNA__062__A
*224 ANTENNA__063__A
*225 ANTENNA__064__A
*226 ANTENNA__065__A
*227 ANTENNA__066__A
*228 ANTENNA__067__A
*229 ANTENNA__068__A
*230 ANTENNA__069__A
*231 ANTENNA__070__A
*232 ANTENNA__071__A
*233 ANTENNA__072__CLK
*234 ANTENNA__073__CLK
*235 ANTENNA__074__CLK
*236 ANTENNA__075__CLK
*237 ANTENNA__076__CLK
*238 ANTENNA__077__CLK
*239 ANTENNA__078__CLK
*240 ANTENNA__079__CLK
*241 ANTENNA__080__CLK
*242 ANTENNA__081__CLK
*243 ANTENNA__082__CLK
*244 ANTENNA__083__CLK
*245 ANTENNA__084__CLK
*246 ANTENNA__085__CLK
*247 ANTENNA__086__CLK
*248 ANTENNA__086__D
*249 ANTENNA__087__CLK
*250 ANTENNA__088__CLK
*251 ANTENNA__089__CLK
*252 ANTENNA__090__CLK
*253 ANTENNA__091__CLK
*254 ANTENNA__091__D
*255 ANTENNA__092__CLK
*256 ANTENNA__092__D
*257 ANTENNA__093__CLK
*258 ANTENNA__093__D
*259 ANTENNA__094__CLK
*260 ANTENNA__095__CLK
*261 ANTENNA__096__CLK
*262 ANTENNA__097__CLK
*263 ANTENNA__098__CLK
*264 ANTENNA__099__CLK
*265 ANTENNA__100__CLK
*266 ANTENNA__101__CLK
*267 ANTENNA__102__CLK
*268 ANTENNA__103__CLK
*269 ANTENNA__104__CLK
*270 ANTENNA__105__CLK
*271 ANTENNA__106__CLK
*272 ANTENNA__107__CLK
*273 ANTENNA_clkbuf_1_0_0_wb_clk_i_A
*274 ANTENNA_clkbuf_1_1_0_wb_clk_i_A
*275 ANTENNA_clkbuf_2_0_0_wb_clk_i_A
*276 ANTENNA_clkbuf_2_1_0_wb_clk_i_A
*277 ANTENNA_clkbuf_2_2_0_wb_clk_i_A
*278 ANTENNA_clkbuf_2_3_0_wb_clk_i_A
*279 ANTENNA_fanout26_A
*280 ANTENNA_fanout27_A
*281 ANTENNA_output16_A
*282 ANTENNA_output23_A
*283 ANTENNA_wire28_A
*284 FILLER_0_0_1005
*285 FILLER_0_0_1009
*286 FILLER_0_0_1021
*287 FILLER_0_0_1033
*288 FILLER_0_0_1037
*289 FILLER_0_0_1049
*290 FILLER_0_0_1057
*291 FILLER_0_0_109
*292 FILLER_0_0_113
*293 FILLER_0_0_125
*294 FILLER_0_0_137
*295 FILLER_0_0_141
*296 FILLER_0_0_15
*297 FILLER_0_0_153
*298 FILLER_0_0_165
*299 FILLER_0_0_169
*300 FILLER_0_0_181
*301 FILLER_0_0_193
*302 FILLER_0_0_197
*303 FILLER_0_0_209
*304 FILLER_0_0_221
*305 FILLER_0_0_225
*306 FILLER_0_0_237
*307 FILLER_0_0_249
*308 FILLER_0_0_253
*309 FILLER_0_0_265
*310 FILLER_0_0_27
*311 FILLER_0_0_277
*312 FILLER_0_0_281
*313 FILLER_0_0_29
*314 FILLER_0_0_293
*315 FILLER_0_0_3
*316 FILLER_0_0_305
*317 FILLER_0_0_309
*318 FILLER_0_0_321
*319 FILLER_0_0_333
*320 FILLER_0_0_337
*321 FILLER_0_0_349
*322 FILLER_0_0_361
*323 FILLER_0_0_365
*324 FILLER_0_0_377
*325 FILLER_0_0_389
*326 FILLER_0_0_393
*327 FILLER_0_0_405
*328 FILLER_0_0_41
*329 FILLER_0_0_417
*330 FILLER_0_0_421
*331 FILLER_0_0_433
*332 FILLER_0_0_445
*333 FILLER_0_0_449
*334 FILLER_0_0_461
*335 FILLER_0_0_473
*336 FILLER_0_0_477
*337 FILLER_0_0_489
*338 FILLER_0_0_501
*339 FILLER_0_0_505
*340 FILLER_0_0_517
*341 FILLER_0_0_529
*342 FILLER_0_0_53
*343 FILLER_0_0_533
*344 FILLER_0_0_545
*345 FILLER_0_0_557
*346 FILLER_0_0_561
*347 FILLER_0_0_57
*348 FILLER_0_0_573
*349 FILLER_0_0_585
*350 FILLER_0_0_589
*351 FILLER_0_0_601
*352 FILLER_0_0_613
*353 FILLER_0_0_617
*354 FILLER_0_0_629
*355 FILLER_0_0_641
*356 FILLER_0_0_645
*357 FILLER_0_0_657
*358 FILLER_0_0_669
*359 FILLER_0_0_673
*360 FILLER_0_0_685
*361 FILLER_0_0_69
*362 FILLER_0_0_697
*363 FILLER_0_0_701
*364 FILLER_0_0_713
*365 FILLER_0_0_725
*366 FILLER_0_0_729
*367 FILLER_0_0_741
*368 FILLER_0_0_753
*369 FILLER_0_0_757
*370 FILLER_0_0_769
*371 FILLER_0_0_781
*372 FILLER_0_0_785
*373 FILLER_0_0_797
*374 FILLER_0_0_809
*375 FILLER_0_0_81
*376 FILLER_0_0_813
*377 FILLER_0_0_825
*378 FILLER_0_0_837
*379 FILLER_0_0_841
*380 FILLER_0_0_85
*381 FILLER_0_0_853
*382 FILLER_0_0_865
*383 FILLER_0_0_869
*384 FILLER_0_0_881
*385 FILLER_0_0_893
*386 FILLER_0_0_897
*387 FILLER_0_0_909
*388 FILLER_0_0_921
*389 FILLER_0_0_925
*390 FILLER_0_0_937
*391 FILLER_0_0_949
*392 FILLER_0_0_953
*393 FILLER_0_0_965
*394 FILLER_0_0_97
*395 FILLER_0_0_977
*396 FILLER_0_0_981
*397 FILLER_0_0_993
*398 FILLER_0_1000_1005
*399 FILLER_0_1000_1017
*400 FILLER_0_1000_1029
*401 FILLER_0_1000_1035
*402 FILLER_0_1000_1037
*403 FILLER_0_1000_1049
*404 FILLER_0_1000_1057
*405 FILLER_0_1000_109
*406 FILLER_0_1000_121
*407 FILLER_0_1000_133
*408 FILLER_0_1000_139
*409 FILLER_0_1000_141
*410 FILLER_0_1000_15
*411 FILLER_0_1000_153
*412 FILLER_0_1000_165
*413 FILLER_0_1000_177
*414 FILLER_0_1000_189
*415 FILLER_0_1000_195
*416 FILLER_0_1000_197
*417 FILLER_0_1000_209
*418 FILLER_0_1000_221
*419 FILLER_0_1000_233
*420 FILLER_0_1000_245
*421 FILLER_0_1000_251
*422 FILLER_0_1000_253
*423 FILLER_0_1000_265
*424 FILLER_0_1000_27
*425 FILLER_0_1000_277
*426 FILLER_0_1000_289
*427 FILLER_0_1000_29
*428 FILLER_0_1000_3
*429 FILLER_0_1000_301
*430 FILLER_0_1000_307
*431 FILLER_0_1000_309
*432 FILLER_0_1000_321
*433 FILLER_0_1000_333
*434 FILLER_0_1000_345
*435 FILLER_0_1000_357
*436 FILLER_0_1000_363
*437 FILLER_0_1000_365
*438 FILLER_0_1000_377
*439 FILLER_0_1000_389
*440 FILLER_0_1000_401
*441 FILLER_0_1000_41
*442 FILLER_0_1000_413
*443 FILLER_0_1000_419
*444 FILLER_0_1000_421
*445 FILLER_0_1000_433
*446 FILLER_0_1000_445
*447 FILLER_0_1000_457
*448 FILLER_0_1000_469
*449 FILLER_0_1000_475
*450 FILLER_0_1000_477
*451 FILLER_0_1000_489
*452 FILLER_0_1000_501
*453 FILLER_0_1000_513
*454 FILLER_0_1000_525
*455 FILLER_0_1000_53
*456 FILLER_0_1000_531
*457 FILLER_0_1000_533
*458 FILLER_0_1000_545
*459 FILLER_0_1000_557
*460 FILLER_0_1000_569
*461 FILLER_0_1000_581
*462 FILLER_0_1000_587
*463 FILLER_0_1000_589
*464 FILLER_0_1000_601
*465 FILLER_0_1000_613
*466 FILLER_0_1000_625
*467 FILLER_0_1000_637
*468 FILLER_0_1000_643
*469 FILLER_0_1000_645
*470 FILLER_0_1000_65
*471 FILLER_0_1000_657
*472 FILLER_0_1000_669
*473 FILLER_0_1000_681
*474 FILLER_0_1000_693
*475 FILLER_0_1000_699
*476 FILLER_0_1000_701
*477 FILLER_0_1000_713
*478 FILLER_0_1000_725
*479 FILLER_0_1000_737
*480 FILLER_0_1000_749
*481 FILLER_0_1000_755
*482 FILLER_0_1000_757
*483 FILLER_0_1000_769
*484 FILLER_0_1000_77
*485 FILLER_0_1000_781
*486 FILLER_0_1000_793
*487 FILLER_0_1000_805
*488 FILLER_0_1000_811
*489 FILLER_0_1000_813
*490 FILLER_0_1000_825
*491 FILLER_0_1000_83
*492 FILLER_0_1000_837
*493 FILLER_0_1000_849
*494 FILLER_0_1000_85
*495 FILLER_0_1000_861
*496 FILLER_0_1000_867
*497 FILLER_0_1000_869
*498 FILLER_0_1000_881
*499 FILLER_0_1000_893
*500 FILLER_0_1000_905
*501 FILLER_0_1000_917
*502 FILLER_0_1000_923
*503 FILLER_0_1000_925
*504 FILLER_0_1000_937
*505 FILLER_0_1000_949
*506 FILLER_0_1000_961
*507 FILLER_0_1000_97
*508 FILLER_0_1000_973
*509 FILLER_0_1000_979
*510 FILLER_0_1000_981
*511 FILLER_0_1000_993
*512 FILLER_0_1001_1001
*513 FILLER_0_1001_1007
*514 FILLER_0_1001_1009
*515 FILLER_0_1001_1021
*516 FILLER_0_1001_1033
*517 FILLER_0_1001_1045
*518 FILLER_0_1001_105
*519 FILLER_0_1001_1057
*520 FILLER_0_1001_111
*521 FILLER_0_1001_113
*522 FILLER_0_1001_125
*523 FILLER_0_1001_137
*524 FILLER_0_1001_149
*525 FILLER_0_1001_15
*526 FILLER_0_1001_161
*527 FILLER_0_1001_167
*528 FILLER_0_1001_169
*529 FILLER_0_1001_181
*530 FILLER_0_1001_193
*531 FILLER_0_1001_205
*532 FILLER_0_1001_217
*533 FILLER_0_1001_223
*534 FILLER_0_1001_225
*535 FILLER_0_1001_237
*536 FILLER_0_1001_249
*537 FILLER_0_1001_261
*538 FILLER_0_1001_27
*539 FILLER_0_1001_273
*540 FILLER_0_1001_279
*541 FILLER_0_1001_281
*542 FILLER_0_1001_293
*543 FILLER_0_1001_3
*544 FILLER_0_1001_305
*545 FILLER_0_1001_317
*546 FILLER_0_1001_329
*547 FILLER_0_1001_335
*548 FILLER_0_1001_337
*549 FILLER_0_1001_349
*550 FILLER_0_1001_361
*551 FILLER_0_1001_373
*552 FILLER_0_1001_385
*553 FILLER_0_1001_39
*554 FILLER_0_1001_391
*555 FILLER_0_1001_393
*556 FILLER_0_1001_405
*557 FILLER_0_1001_417
*558 FILLER_0_1001_429
*559 FILLER_0_1001_441
*560 FILLER_0_1001_447
*561 FILLER_0_1001_449
*562 FILLER_0_1001_461
*563 FILLER_0_1001_473
*564 FILLER_0_1001_485
*565 FILLER_0_1001_497
*566 FILLER_0_1001_503
*567 FILLER_0_1001_505
*568 FILLER_0_1001_51
*569 FILLER_0_1001_517
*570 FILLER_0_1001_529
*571 FILLER_0_1001_541
*572 FILLER_0_1001_55
*573 FILLER_0_1001_553
*574 FILLER_0_1001_559
*575 FILLER_0_1001_561
*576 FILLER_0_1001_57
*577 FILLER_0_1001_573
*578 FILLER_0_1001_585
*579 FILLER_0_1001_597
*580 FILLER_0_1001_609
*581 FILLER_0_1001_615
*582 FILLER_0_1001_617
*583 FILLER_0_1001_629
*584 FILLER_0_1001_641
*585 FILLER_0_1001_653
*586 FILLER_0_1001_665
*587 FILLER_0_1001_671
*588 FILLER_0_1001_673
*589 FILLER_0_1001_685
*590 FILLER_0_1001_69
*591 FILLER_0_1001_697
*592 FILLER_0_1001_709
*593 FILLER_0_1001_721
*594 FILLER_0_1001_727
*595 FILLER_0_1001_729
*596 FILLER_0_1001_741
*597 FILLER_0_1001_753
*598 FILLER_0_1001_765
*599 FILLER_0_1001_777
*600 FILLER_0_1001_783
*601 FILLER_0_1001_785
*602 FILLER_0_1001_797
*603 FILLER_0_1001_809
*604 FILLER_0_1001_81
*605 FILLER_0_1001_821
*606 FILLER_0_1001_833
*607 FILLER_0_1001_839
*608 FILLER_0_1001_841
*609 FILLER_0_1001_853
*610 FILLER_0_1001_865
*611 FILLER_0_1001_877
*612 FILLER_0_1001_889
*613 FILLER_0_1001_895
*614 FILLER_0_1001_897
*615 FILLER_0_1001_909
*616 FILLER_0_1001_921
*617 FILLER_0_1001_93
*618 FILLER_0_1001_933
*619 FILLER_0_1001_945
*620 FILLER_0_1001_951
*621 FILLER_0_1001_953
*622 FILLER_0_1001_965
*623 FILLER_0_1001_977
*624 FILLER_0_1001_989
*625 FILLER_0_1002_1005
*626 FILLER_0_1002_1017
*627 FILLER_0_1002_1029
*628 FILLER_0_1002_1035
*629 FILLER_0_1002_1037
*630 FILLER_0_1002_1049
*631 FILLER_0_1002_1057
*632 FILLER_0_1002_109
*633 FILLER_0_1002_121
*634 FILLER_0_1002_133
*635 FILLER_0_1002_139
*636 FILLER_0_1002_141
*637 FILLER_0_1002_15
*638 FILLER_0_1002_153
*639 FILLER_0_1002_165
*640 FILLER_0_1002_177
*641 FILLER_0_1002_189
*642 FILLER_0_1002_195
*643 FILLER_0_1002_197
*644 FILLER_0_1002_209
*645 FILLER_0_1002_221
*646 FILLER_0_1002_233
*647 FILLER_0_1002_245
*648 FILLER_0_1002_251
*649 FILLER_0_1002_253
*650 FILLER_0_1002_265
*651 FILLER_0_1002_27
*652 FILLER_0_1002_277
*653 FILLER_0_1002_289
*654 FILLER_0_1002_29
*655 FILLER_0_1002_3
*656 FILLER_0_1002_301
*657 FILLER_0_1002_307
*658 FILLER_0_1002_309
*659 FILLER_0_1002_321
*660 FILLER_0_1002_333
*661 FILLER_0_1002_345
*662 FILLER_0_1002_357
*663 FILLER_0_1002_363
*664 FILLER_0_1002_365
*665 FILLER_0_1002_377
*666 FILLER_0_1002_389
*667 FILLER_0_1002_401
*668 FILLER_0_1002_41
*669 FILLER_0_1002_413
*670 FILLER_0_1002_419
*671 FILLER_0_1002_421
*672 FILLER_0_1002_433
*673 FILLER_0_1002_445
*674 FILLER_0_1002_457
*675 FILLER_0_1002_469
*676 FILLER_0_1002_475
*677 FILLER_0_1002_477
*678 FILLER_0_1002_489
*679 FILLER_0_1002_501
*680 FILLER_0_1002_513
*681 FILLER_0_1002_525
*682 FILLER_0_1002_53
*683 FILLER_0_1002_531
*684 FILLER_0_1002_533
*685 FILLER_0_1002_545
*686 FILLER_0_1002_557
*687 FILLER_0_1002_569
*688 FILLER_0_1002_581
*689 FILLER_0_1002_587
*690 FILLER_0_1002_589
*691 FILLER_0_1002_601
*692 FILLER_0_1002_613
*693 FILLER_0_1002_625
*694 FILLER_0_1002_637
*695 FILLER_0_1002_643
*696 FILLER_0_1002_645
*697 FILLER_0_1002_65
*698 FILLER_0_1002_657
*699 FILLER_0_1002_669
*700 FILLER_0_1002_681
*701 FILLER_0_1002_693
*702 FILLER_0_1002_699
*703 FILLER_0_1002_701
*704 FILLER_0_1002_713
*705 FILLER_0_1002_725
*706 FILLER_0_1002_737
*707 FILLER_0_1002_749
*708 FILLER_0_1002_755
*709 FILLER_0_1002_757
*710 FILLER_0_1002_769
*711 FILLER_0_1002_77
*712 FILLER_0_1002_781
*713 FILLER_0_1002_793
*714 FILLER_0_1002_805
*715 FILLER_0_1002_811
*716 FILLER_0_1002_813
*717 FILLER_0_1002_825
*718 FILLER_0_1002_83
*719 FILLER_0_1002_837
*720 FILLER_0_1002_849
*721 FILLER_0_1002_85
*722 FILLER_0_1002_861
*723 FILLER_0_1002_867
*724 FILLER_0_1002_869
*725 FILLER_0_1002_881
*726 FILLER_0_1002_893
*727 FILLER_0_1002_905
*728 FILLER_0_1002_917
*729 FILLER_0_1002_923
*730 FILLER_0_1002_925
*731 FILLER_0_1002_937
*732 FILLER_0_1002_949
*733 FILLER_0_1002_961
*734 FILLER_0_1002_97
*735 FILLER_0_1002_973
*736 FILLER_0_1002_979
*737 FILLER_0_1002_981
*738 FILLER_0_1002_993
*739 FILLER_0_1003_1001
*740 FILLER_0_1003_1007
*741 FILLER_0_1003_1009
*742 FILLER_0_1003_1021
*743 FILLER_0_1003_1033
*744 FILLER_0_1003_1045
*745 FILLER_0_1003_105
*746 FILLER_0_1003_1057
*747 FILLER_0_1003_111
*748 FILLER_0_1003_113
*749 FILLER_0_1003_125
*750 FILLER_0_1003_137
*751 FILLER_0_1003_149
*752 FILLER_0_1003_15
*753 FILLER_0_1003_161
*754 FILLER_0_1003_167
*755 FILLER_0_1003_169
*756 FILLER_0_1003_181
*757 FILLER_0_1003_193
*758 FILLER_0_1003_205
*759 FILLER_0_1003_217
*760 FILLER_0_1003_223
*761 FILLER_0_1003_225
*762 FILLER_0_1003_237
*763 FILLER_0_1003_249
*764 FILLER_0_1003_261
*765 FILLER_0_1003_27
*766 FILLER_0_1003_273
*767 FILLER_0_1003_279
*768 FILLER_0_1003_281
*769 FILLER_0_1003_293
*770 FILLER_0_1003_3
*771 FILLER_0_1003_305
*772 FILLER_0_1003_317
*773 FILLER_0_1003_329
*774 FILLER_0_1003_335
*775 FILLER_0_1003_337
*776 FILLER_0_1003_349
*777 FILLER_0_1003_361
*778 FILLER_0_1003_373
*779 FILLER_0_1003_385
*780 FILLER_0_1003_39
*781 FILLER_0_1003_391
*782 FILLER_0_1003_393
*783 FILLER_0_1003_405
*784 FILLER_0_1003_417
*785 FILLER_0_1003_429
*786 FILLER_0_1003_441
*787 FILLER_0_1003_447
*788 FILLER_0_1003_449
*789 FILLER_0_1003_461
*790 FILLER_0_1003_473
*791 FILLER_0_1003_485
*792 FILLER_0_1003_497
*793 FILLER_0_1003_503
*794 FILLER_0_1003_505
*795 FILLER_0_1003_51
*796 FILLER_0_1003_517
*797 FILLER_0_1003_529
*798 FILLER_0_1003_541
*799 FILLER_0_1003_55
*800 FILLER_0_1003_553
*801 FILLER_0_1003_559
*802 FILLER_0_1003_561
*803 FILLER_0_1003_57
*804 FILLER_0_1003_573
*805 FILLER_0_1003_585
*806 FILLER_0_1003_597
*807 FILLER_0_1003_609
*808 FILLER_0_1003_615
*809 FILLER_0_1003_617
*810 FILLER_0_1003_629
*811 FILLER_0_1003_641
*812 FILLER_0_1003_653
*813 FILLER_0_1003_665
*814 FILLER_0_1003_671
*815 FILLER_0_1003_673
*816 FILLER_0_1003_685
*817 FILLER_0_1003_69
*818 FILLER_0_1003_697
*819 FILLER_0_1003_709
*820 FILLER_0_1003_721
*821 FILLER_0_1003_727
*822 FILLER_0_1003_729
*823 FILLER_0_1003_741
*824 FILLER_0_1003_753
*825 FILLER_0_1003_765
*826 FILLER_0_1003_777
*827 FILLER_0_1003_783
*828 FILLER_0_1003_785
*829 FILLER_0_1003_797
*830 FILLER_0_1003_809
*831 FILLER_0_1003_81
*832 FILLER_0_1003_821
*833 FILLER_0_1003_833
*834 FILLER_0_1003_839
*835 FILLER_0_1003_841
*836 FILLER_0_1003_853
*837 FILLER_0_1003_865
*838 FILLER_0_1003_877
*839 FILLER_0_1003_889
*840 FILLER_0_1003_895
*841 FILLER_0_1003_897
*842 FILLER_0_1003_909
*843 FILLER_0_1003_921
*844 FILLER_0_1003_93
*845 FILLER_0_1003_933
*846 FILLER_0_1003_945
*847 FILLER_0_1003_951
*848 FILLER_0_1003_953
*849 FILLER_0_1003_965
*850 FILLER_0_1003_977
*851 FILLER_0_1003_989
*852 FILLER_0_1004_1005
*853 FILLER_0_1004_1017
*854 FILLER_0_1004_1029
*855 FILLER_0_1004_1035
*856 FILLER_0_1004_1037
*857 FILLER_0_1004_1049
*858 FILLER_0_1004_1057
*859 FILLER_0_1004_109
*860 FILLER_0_1004_121
*861 FILLER_0_1004_133
*862 FILLER_0_1004_139
*863 FILLER_0_1004_141
*864 FILLER_0_1004_15
*865 FILLER_0_1004_153
*866 FILLER_0_1004_165
*867 FILLER_0_1004_177
*868 FILLER_0_1004_189
*869 FILLER_0_1004_195
*870 FILLER_0_1004_197
*871 FILLER_0_1004_209
*872 FILLER_0_1004_221
*873 FILLER_0_1004_233
*874 FILLER_0_1004_245
*875 FILLER_0_1004_251
*876 FILLER_0_1004_253
*877 FILLER_0_1004_265
*878 FILLER_0_1004_27
*879 FILLER_0_1004_277
*880 FILLER_0_1004_289
*881 FILLER_0_1004_29
*882 FILLER_0_1004_3
*883 FILLER_0_1004_301
*884 FILLER_0_1004_307
*885 FILLER_0_1004_309
*886 FILLER_0_1004_321
*887 FILLER_0_1004_333
*888 FILLER_0_1004_345
*889 FILLER_0_1004_357
*890 FILLER_0_1004_363
*891 FILLER_0_1004_365
*892 FILLER_0_1004_377
*893 FILLER_0_1004_389
*894 FILLER_0_1004_401
*895 FILLER_0_1004_41
*896 FILLER_0_1004_413
*897 FILLER_0_1004_419
*898 FILLER_0_1004_421
*899 FILLER_0_1004_433
*900 FILLER_0_1004_445
*901 FILLER_0_1004_457
*902 FILLER_0_1004_469
*903 FILLER_0_1004_475
*904 FILLER_0_1004_477
*905 FILLER_0_1004_489
*906 FILLER_0_1004_501
*907 FILLER_0_1004_513
*908 FILLER_0_1004_525
*909 FILLER_0_1004_53
*910 FILLER_0_1004_531
*911 FILLER_0_1004_533
*912 FILLER_0_1004_545
*913 FILLER_0_1004_557
*914 FILLER_0_1004_569
*915 FILLER_0_1004_581
*916 FILLER_0_1004_587
*917 FILLER_0_1004_589
*918 FILLER_0_1004_601
*919 FILLER_0_1004_613
*920 FILLER_0_1004_625
*921 FILLER_0_1004_637
*922 FILLER_0_1004_643
*923 FILLER_0_1004_645
*924 FILLER_0_1004_65
*925 FILLER_0_1004_657
*926 FILLER_0_1004_669
*927 FILLER_0_1004_681
*928 FILLER_0_1004_693
*929 FILLER_0_1004_699
*930 FILLER_0_1004_701
*931 FILLER_0_1004_713
*932 FILLER_0_1004_725
*933 FILLER_0_1004_737
*934 FILLER_0_1004_749
*935 FILLER_0_1004_755
*936 FILLER_0_1004_757
*937 FILLER_0_1004_769
*938 FILLER_0_1004_77
*939 FILLER_0_1004_781
*940 FILLER_0_1004_793
*941 FILLER_0_1004_805
*942 FILLER_0_1004_811
*943 FILLER_0_1004_813
*944 FILLER_0_1004_825
*945 FILLER_0_1004_83
*946 FILLER_0_1004_837
*947 FILLER_0_1004_849
*948 FILLER_0_1004_85
*949 FILLER_0_1004_861
*950 FILLER_0_1004_867
*951 FILLER_0_1004_869
*952 FILLER_0_1004_881
*953 FILLER_0_1004_893
*954 FILLER_0_1004_905
*955 FILLER_0_1004_917
*956 FILLER_0_1004_923
*957 FILLER_0_1004_925
*958 FILLER_0_1004_937
*959 FILLER_0_1004_949
*960 FILLER_0_1004_961
*961 FILLER_0_1004_97
*962 FILLER_0_1004_973
*963 FILLER_0_1004_979
*964 FILLER_0_1004_981
*965 FILLER_0_1004_993
*966 FILLER_0_1005_1001
*967 FILLER_0_1005_1007
*968 FILLER_0_1005_1009
*969 FILLER_0_1005_1021
*970 FILLER_0_1005_1033
*971 FILLER_0_1005_1045
*972 FILLER_0_1005_105
*973 FILLER_0_1005_1057
*974 FILLER_0_1005_111
*975 FILLER_0_1005_113
*976 FILLER_0_1005_125
*977 FILLER_0_1005_137
*978 FILLER_0_1005_149
*979 FILLER_0_1005_15
*980 FILLER_0_1005_161
*981 FILLER_0_1005_167
*982 FILLER_0_1005_169
*983 FILLER_0_1005_181
*984 FILLER_0_1005_193
*985 FILLER_0_1005_205
*986 FILLER_0_1005_217
*987 FILLER_0_1005_223
*988 FILLER_0_1005_225
*989 FILLER_0_1005_237
*990 FILLER_0_1005_249
*991 FILLER_0_1005_261
*992 FILLER_0_1005_27
*993 FILLER_0_1005_273
*994 FILLER_0_1005_279
*995 FILLER_0_1005_281
*996 FILLER_0_1005_293
*997 FILLER_0_1005_3
*998 FILLER_0_1005_305
*999 FILLER_0_1005_317
*1000 FILLER_0_1005_329
*1001 FILLER_0_1005_335
*1002 FILLER_0_1005_337
*1003 FILLER_0_1005_349
*1004 FILLER_0_1005_361
*1005 FILLER_0_1005_373
*1006 FILLER_0_1005_385
*1007 FILLER_0_1005_39
*1008 FILLER_0_1005_391
*1009 FILLER_0_1005_393
*1010 FILLER_0_1005_405
*1011 FILLER_0_1005_417
*1012 FILLER_0_1005_429
*1013 FILLER_0_1005_441
*1014 FILLER_0_1005_447
*1015 FILLER_0_1005_449
*1016 FILLER_0_1005_461
*1017 FILLER_0_1005_473
*1018 FILLER_0_1005_485
*1019 FILLER_0_1005_497
*1020 FILLER_0_1005_503
*1021 FILLER_0_1005_505
*1022 FILLER_0_1005_51
*1023 FILLER_0_1005_517
*1024 FILLER_0_1005_529
*1025 FILLER_0_1005_541
*1026 FILLER_0_1005_55
*1027 FILLER_0_1005_553
*1028 FILLER_0_1005_559
*1029 FILLER_0_1005_561
*1030 FILLER_0_1005_57
*1031 FILLER_0_1005_573
*1032 FILLER_0_1005_585
*1033 FILLER_0_1005_597
*1034 FILLER_0_1005_609
*1035 FILLER_0_1005_615
*1036 FILLER_0_1005_617
*1037 FILLER_0_1005_629
*1038 FILLER_0_1005_641
*1039 FILLER_0_1005_653
*1040 FILLER_0_1005_665
*1041 FILLER_0_1005_671
*1042 FILLER_0_1005_673
*1043 FILLER_0_1005_685
*1044 FILLER_0_1005_69
*1045 FILLER_0_1005_697
*1046 FILLER_0_1005_709
*1047 FILLER_0_1005_721
*1048 FILLER_0_1005_727
*1049 FILLER_0_1005_729
*1050 FILLER_0_1005_741
*1051 FILLER_0_1005_753
*1052 FILLER_0_1005_765
*1053 FILLER_0_1005_777
*1054 FILLER_0_1005_783
*1055 FILLER_0_1005_785
*1056 FILLER_0_1005_797
*1057 FILLER_0_1005_809
*1058 FILLER_0_1005_81
*1059 FILLER_0_1005_821
*1060 FILLER_0_1005_833
*1061 FILLER_0_1005_839
*1062 FILLER_0_1005_841
*1063 FILLER_0_1005_853
*1064 FILLER_0_1005_865
*1065 FILLER_0_1005_877
*1066 FILLER_0_1005_889
*1067 FILLER_0_1005_895
*1068 FILLER_0_1005_897
*1069 FILLER_0_1005_909
*1070 FILLER_0_1005_921
*1071 FILLER_0_1005_93
*1072 FILLER_0_1005_933
*1073 FILLER_0_1005_945
*1074 FILLER_0_1005_951
*1075 FILLER_0_1005_953
*1076 FILLER_0_1005_965
*1077 FILLER_0_1005_977
*1078 FILLER_0_1005_989
*1079 FILLER_0_1006_1005
*1080 FILLER_0_1006_1017
*1081 FILLER_0_1006_1029
*1082 FILLER_0_1006_1035
*1083 FILLER_0_1006_1037
*1084 FILLER_0_1006_1049
*1085 FILLER_0_1006_1057
*1086 FILLER_0_1006_109
*1087 FILLER_0_1006_121
*1088 FILLER_0_1006_133
*1089 FILLER_0_1006_139
*1090 FILLER_0_1006_141
*1091 FILLER_0_1006_15
*1092 FILLER_0_1006_153
*1093 FILLER_0_1006_165
*1094 FILLER_0_1006_177
*1095 FILLER_0_1006_189
*1096 FILLER_0_1006_195
*1097 FILLER_0_1006_197
*1098 FILLER_0_1006_209
*1099 FILLER_0_1006_221
*1100 FILLER_0_1006_233
*1101 FILLER_0_1006_245
*1102 FILLER_0_1006_251
*1103 FILLER_0_1006_253
*1104 FILLER_0_1006_265
*1105 FILLER_0_1006_27
*1106 FILLER_0_1006_277
*1107 FILLER_0_1006_289
*1108 FILLER_0_1006_29
*1109 FILLER_0_1006_3
*1110 FILLER_0_1006_301
*1111 FILLER_0_1006_307
*1112 FILLER_0_1006_309
*1113 FILLER_0_1006_321
*1114 FILLER_0_1006_333
*1115 FILLER_0_1006_345
*1116 FILLER_0_1006_357
*1117 FILLER_0_1006_363
*1118 FILLER_0_1006_365
*1119 FILLER_0_1006_377
*1120 FILLER_0_1006_389
*1121 FILLER_0_1006_401
*1122 FILLER_0_1006_41
*1123 FILLER_0_1006_413
*1124 FILLER_0_1006_419
*1125 FILLER_0_1006_421
*1126 FILLER_0_1006_433
*1127 FILLER_0_1006_445
*1128 FILLER_0_1006_457
*1129 FILLER_0_1006_469
*1130 FILLER_0_1006_475
*1131 FILLER_0_1006_477
*1132 FILLER_0_1006_489
*1133 FILLER_0_1006_501
*1134 FILLER_0_1006_513
*1135 FILLER_0_1006_525
*1136 FILLER_0_1006_53
*1137 FILLER_0_1006_531
*1138 FILLER_0_1006_533
*1139 FILLER_0_1006_545
*1140 FILLER_0_1006_557
*1141 FILLER_0_1006_569
*1142 FILLER_0_1006_581
*1143 FILLER_0_1006_587
*1144 FILLER_0_1006_589
*1145 FILLER_0_1006_601
*1146 FILLER_0_1006_613
*1147 FILLER_0_1006_625
*1148 FILLER_0_1006_637
*1149 FILLER_0_1006_643
*1150 FILLER_0_1006_645
*1151 FILLER_0_1006_65
*1152 FILLER_0_1006_657
*1153 FILLER_0_1006_669
*1154 FILLER_0_1006_681
*1155 FILLER_0_1006_693
*1156 FILLER_0_1006_699
*1157 FILLER_0_1006_701
*1158 FILLER_0_1006_713
*1159 FILLER_0_1006_725
*1160 FILLER_0_1006_737
*1161 FILLER_0_1006_749
*1162 FILLER_0_1006_755
*1163 FILLER_0_1006_757
*1164 FILLER_0_1006_769
*1165 FILLER_0_1006_77
*1166 FILLER_0_1006_781
*1167 FILLER_0_1006_793
*1168 FILLER_0_1006_805
*1169 FILLER_0_1006_811
*1170 FILLER_0_1006_813
*1171 FILLER_0_1006_825
*1172 FILLER_0_1006_83
*1173 FILLER_0_1006_837
*1174 FILLER_0_1006_849
*1175 FILLER_0_1006_85
*1176 FILLER_0_1006_861
*1177 FILLER_0_1006_867
*1178 FILLER_0_1006_869
*1179 FILLER_0_1006_881
*1180 FILLER_0_1006_893
*1181 FILLER_0_1006_905
*1182 FILLER_0_1006_917
*1183 FILLER_0_1006_923
*1184 FILLER_0_1006_925
*1185 FILLER_0_1006_937
*1186 FILLER_0_1006_949
*1187 FILLER_0_1006_961
*1188 FILLER_0_1006_97
*1189 FILLER_0_1006_973
*1190 FILLER_0_1006_979
*1191 FILLER_0_1006_981
*1192 FILLER_0_1006_993
*1193 FILLER_0_1007_1001
*1194 FILLER_0_1007_1007
*1195 FILLER_0_1007_1009
*1196 FILLER_0_1007_1021
*1197 FILLER_0_1007_1033
*1198 FILLER_0_1007_1045
*1199 FILLER_0_1007_105
*1200 FILLER_0_1007_1057
*1201 FILLER_0_1007_111
*1202 FILLER_0_1007_113
*1203 FILLER_0_1007_125
*1204 FILLER_0_1007_137
*1205 FILLER_0_1007_149
*1206 FILLER_0_1007_15
*1207 FILLER_0_1007_161
*1208 FILLER_0_1007_167
*1209 FILLER_0_1007_169
*1210 FILLER_0_1007_181
*1211 FILLER_0_1007_193
*1212 FILLER_0_1007_205
*1213 FILLER_0_1007_217
*1214 FILLER_0_1007_223
*1215 FILLER_0_1007_225
*1216 FILLER_0_1007_237
*1217 FILLER_0_1007_249
*1218 FILLER_0_1007_261
*1219 FILLER_0_1007_27
*1220 FILLER_0_1007_273
*1221 FILLER_0_1007_279
*1222 FILLER_0_1007_281
*1223 FILLER_0_1007_293
*1224 FILLER_0_1007_3
*1225 FILLER_0_1007_305
*1226 FILLER_0_1007_317
*1227 FILLER_0_1007_329
*1228 FILLER_0_1007_335
*1229 FILLER_0_1007_337
*1230 FILLER_0_1007_349
*1231 FILLER_0_1007_361
*1232 FILLER_0_1007_373
*1233 FILLER_0_1007_385
*1234 FILLER_0_1007_39
*1235 FILLER_0_1007_391
*1236 FILLER_0_1007_393
*1237 FILLER_0_1007_405
*1238 FILLER_0_1007_417
*1239 FILLER_0_1007_429
*1240 FILLER_0_1007_441
*1241 FILLER_0_1007_447
*1242 FILLER_0_1007_449
*1243 FILLER_0_1007_461
*1244 FILLER_0_1007_473
*1245 FILLER_0_1007_485
*1246 FILLER_0_1007_497
*1247 FILLER_0_1007_503
*1248 FILLER_0_1007_505
*1249 FILLER_0_1007_51
*1250 FILLER_0_1007_517
*1251 FILLER_0_1007_529
*1252 FILLER_0_1007_541
*1253 FILLER_0_1007_55
*1254 FILLER_0_1007_553
*1255 FILLER_0_1007_559
*1256 FILLER_0_1007_561
*1257 FILLER_0_1007_57
*1258 FILLER_0_1007_573
*1259 FILLER_0_1007_585
*1260 FILLER_0_1007_597
*1261 FILLER_0_1007_609
*1262 FILLER_0_1007_615
*1263 FILLER_0_1007_617
*1264 FILLER_0_1007_629
*1265 FILLER_0_1007_641
*1266 FILLER_0_1007_653
*1267 FILLER_0_1007_665
*1268 FILLER_0_1007_671
*1269 FILLER_0_1007_673
*1270 FILLER_0_1007_685
*1271 FILLER_0_1007_69
*1272 FILLER_0_1007_697
*1273 FILLER_0_1007_709
*1274 FILLER_0_1007_721
*1275 FILLER_0_1007_727
*1276 FILLER_0_1007_729
*1277 FILLER_0_1007_741
*1278 FILLER_0_1007_753
*1279 FILLER_0_1007_765
*1280 FILLER_0_1007_777
*1281 FILLER_0_1007_783
*1282 FILLER_0_1007_785
*1283 FILLER_0_1007_797
*1284 FILLER_0_1007_809
*1285 FILLER_0_1007_81
*1286 FILLER_0_1007_821
*1287 FILLER_0_1007_833
*1288 FILLER_0_1007_839
*1289 FILLER_0_1007_841
*1290 FILLER_0_1007_853
*1291 FILLER_0_1007_865
*1292 FILLER_0_1007_877
*1293 FILLER_0_1007_889
*1294 FILLER_0_1007_895
*1295 FILLER_0_1007_897
*1296 FILLER_0_1007_909
*1297 FILLER_0_1007_921
*1298 FILLER_0_1007_93
*1299 FILLER_0_1007_933
*1300 FILLER_0_1007_945
*1301 FILLER_0_1007_951
*1302 FILLER_0_1007_953
*1303 FILLER_0_1007_965
*1304 FILLER_0_1007_977
*1305 FILLER_0_1007_989
*1306 FILLER_0_1008_1005
*1307 FILLER_0_1008_1017
*1308 FILLER_0_1008_1029
*1309 FILLER_0_1008_1035
*1310 FILLER_0_1008_1037
*1311 FILLER_0_1008_1049
*1312 FILLER_0_1008_1057
*1313 FILLER_0_1008_109
*1314 FILLER_0_1008_121
*1315 FILLER_0_1008_133
*1316 FILLER_0_1008_139
*1317 FILLER_0_1008_141
*1318 FILLER_0_1008_15
*1319 FILLER_0_1008_153
*1320 FILLER_0_1008_165
*1321 FILLER_0_1008_177
*1322 FILLER_0_1008_189
*1323 FILLER_0_1008_195
*1324 FILLER_0_1008_197
*1325 FILLER_0_1008_209
*1326 FILLER_0_1008_221
*1327 FILLER_0_1008_233
*1328 FILLER_0_1008_245
*1329 FILLER_0_1008_251
*1330 FILLER_0_1008_253
*1331 FILLER_0_1008_265
*1332 FILLER_0_1008_27
*1333 FILLER_0_1008_277
*1334 FILLER_0_1008_289
*1335 FILLER_0_1008_29
*1336 FILLER_0_1008_3
*1337 FILLER_0_1008_301
*1338 FILLER_0_1008_307
*1339 FILLER_0_1008_309
*1340 FILLER_0_1008_321
*1341 FILLER_0_1008_333
*1342 FILLER_0_1008_345
*1343 FILLER_0_1008_357
*1344 FILLER_0_1008_363
*1345 FILLER_0_1008_365
*1346 FILLER_0_1008_377
*1347 FILLER_0_1008_389
*1348 FILLER_0_1008_401
*1349 FILLER_0_1008_41
*1350 FILLER_0_1008_413
*1351 FILLER_0_1008_419
*1352 FILLER_0_1008_421
*1353 FILLER_0_1008_433
*1354 FILLER_0_1008_445