*SPEF "ieee 1481-1999"
*DESIGN "user_proj_solar"
*DATE "11:11:11 Fri 11 11, 1111"
*VENDOR "OpenRCX"
*PROGRAM "Parallel Extraction"
*VERSION "1.0"
*DESIGN_FLOW "NAME_SCOPE LOCAL" "PIN_CAP NONE"
*DIVIDER /
*DELIMITER :
*BUS_DELIMITER []
*T_UNIT 1 NS
*C_UNIT 1 PF
*R_UNIT 1 OHM
*L_UNIT 1 HENRY

*NAME_MAP
*1 analog_io[0]
*2 analog_io[10]
*3 analog_io[11]
*4 analog_io[12]
*5 analog_io[13]
*6 analog_io[14]
*7 analog_io[15]
*8 analog_io[16]
*9 analog_io[17]
*10 analog_io[18]
*11 analog_io[19]
*12 analog_io[1]
*13 analog_io[20]
*14 analog_io[21]
*15 net3
*16 net4
*17 net5
*18 net6
*19 net7
*20 net8
*21 net9
*22 analog_io[2]
*23 analog_io[3]
*24 analog_io[4]
*25 analog_io[5]
*26 analog_io[6]
*27 analog_io[7]
*28 analog_io[8]
*29 analog_io[9]
*32 wb_clk_i
*33 wb_rst_i
*34 _00_
*35 _01_
*36 _02_
*37 _03_
*38 _04_
*39 _05_
*40 _06_
*41 _07_
*42 _08_
*43 _09_
*44 _10_
*45 _11_
*46 _12_
*47 _13_
*48 _14_
*49 clknet_0_wb_clk_i
*50 clknet_1_0__leaf_wb_clk_i
*51 clknet_1_1__leaf_wb_clk_i
*52 display_mux\.current_display\[0\]
*53 display_mux\.current_display\[1\]
*54 display_mux\.current_display\[2\]
*55 display_mux\.current_display\[3\]
*56 display_mux\.current_display\[4\]
*57 net1
*58 net10
*59 net11
*60 net12
*61 net13
*62 net14
*63 net15
*64 net16
*65 net17
*66 net18
*67 net19
*68 net2
*69 net20
*70 net21
*71 net22
*72 net23
*73 net24
*74 net25
*75 net26
*76 net27
*77 net28
*78 net29
*79 solar_monitor\.adc_current_out\[0\]
*80 solar_monitor\.adc_current_out\[1\]
*81 solar_monitor\.adc_current_out\[2\]
*82 solar_monitor\.adc_current_out\[3\]
*83 solar_monitor\.adc_current_out\[4\]
*84 ANTENNA_1
*85 ANTENNA__15__A
*86 ANTENNA__16__A
*87 ANTENNA__17__A
*88 ANTENNA__18__A
*89 ANTENNA__19__A
*90 ANTENNA__20__A
*91 ANTENNA__21__A
*92 ANTENNA__22__A
*93 ANTENNA__23__A
*94 ANTENNA__24__A
*95 ANTENNA__25__A
*96 ANTENNA__26__A
*97 ANTENNA__27__A
*98 ANTENNA__28__A
*99 ANTENNA__29__A
*100 ANTENNA_wire2_A
*101 FILLER_0_0_1005
*102 FILLER_0_0_1009
*103 FILLER_0_0_1021
*104 FILLER_0_0_1033
*105 FILLER_0_0_1037
*106 FILLER_0_0_1049
*107 FILLER_0_0_1057
*108 FILLER_0_0_109
*109 FILLER_0_0_113
*110 FILLER_0_0_125
*111 FILLER_0_0_137
*112 FILLER_0_0_141
*113 FILLER_0_0_15
*114 FILLER_0_0_153
*115 FILLER_0_0_165
*116 FILLER_0_0_169
*117 FILLER_0_0_181
*118 FILLER_0_0_193
*119 FILLER_0_0_197
*120 FILLER_0_0_209
*121 FILLER_0_0_221
*122 FILLER_0_0_225
*123 FILLER_0_0_237
*124 FILLER_0_0_249
*125 FILLER_0_0_253
*126 FILLER_0_0_265
*127 FILLER_0_0_27
*128 FILLER_0_0_277
*129 FILLER_0_0_281
*130 FILLER_0_0_29
*131 FILLER_0_0_293
*132 FILLER_0_0_3
*133 FILLER_0_0_305
*134 FILLER_0_0_309
*135 FILLER_0_0_321
*136 FILLER_0_0_333
*137 FILLER_0_0_337
*138 FILLER_0_0_349
*139 FILLER_0_0_361
*140 FILLER_0_0_365
*141 FILLER_0_0_377
*142 FILLER_0_0_389
*143 FILLER_0_0_393
*144 FILLER_0_0_405
*145 FILLER_0_0_41
*146 FILLER_0_0_417
*147 FILLER_0_0_421
*148 FILLER_0_0_433
*149 FILLER_0_0_445
*150 FILLER_0_0_449
*151 FILLER_0_0_461
*152 FILLER_0_0_473
*153 FILLER_0_0_477
*154 FILLER_0_0_489
*155 FILLER_0_0_501
*156 FILLER_0_0_505
*157 FILLER_0_0_517
*158 FILLER_0_0_529
*159 FILLER_0_0_53
*160 FILLER_0_0_533
*161 FILLER_0_0_545
*162 FILLER_0_0_557
*163 FILLER_0_0_561
*164 FILLER_0_0_57
*165 FILLER_0_0_573
*166 FILLER_0_0_585
*167 FILLER_0_0_589
*168 FILLER_0_0_601
*169 FILLER_0_0_613
*170 FILLER_0_0_617
*171 FILLER_0_0_629
*172 FILLER_0_0_641
*173 FILLER_0_0_645
*174 FILLER_0_0_657
*175 FILLER_0_0_669
*176 FILLER_0_0_673
*177 FILLER_0_0_685
*178 FILLER_0_0_69
*179 FILLER_0_0_697
*180 FILLER_0_0_701
*181 FILLER_0_0_713
*182 FILLER_0_0_725
*183 FILLER_0_0_729
*184 FILLER_0_0_741
*185 FILLER_0_0_753
*186 FILLER_0_0_757
*187 FILLER_0_0_769
*188 FILLER_0_0_781
*189 FILLER_0_0_785
*190 FILLER_0_0_797
*191 FILLER_0_0_809
*192 FILLER_0_0_81
*193 FILLER_0_0_813
*194 FILLER_0_0_825
*195 FILLER_0_0_837
*196 FILLER_0_0_841
*197 FILLER_0_0_85
*198 FILLER_0_0_853
*199 FILLER_0_0_865
*200 FILLER_0_0_869
*201 FILLER_0_0_881
*202 FILLER_0_0_893
*203 FILLER_0_0_897
*204 FILLER_0_0_909
*205 FILLER_0_0_921
*206 FILLER_0_0_925
*207 FILLER_0_0_937
*208 FILLER_0_0_949
*209 FILLER_0_0_953
*210 FILLER_0_0_965
*211 FILLER_0_0_97
*212 FILLER_0_0_977
*213 FILLER_0_0_981
*214 FILLER_0_0_993
*215 FILLER_0_1000_1005
*216 FILLER_0_1000_1017
*217 FILLER_0_1000_1029
*218 FILLER_0_1000_1035
*219 FILLER_0_1000_1037
*220 FILLER_0_1000_1049
*221 FILLER_0_1000_1057
*222 FILLER_0_1000_109
*223 FILLER_0_1000_121
*224 FILLER_0_1000_133
*225 FILLER_0_1000_139
*226 FILLER_0_1000_141
*227 FILLER_0_1000_15
*228 FILLER_0_1000_153
*229 FILLER_0_1000_165
*230 FILLER_0_1000_177
*231 FILLER_0_1000_189
*232 FILLER_0_1000_195
*233 FILLER_0_1000_197
*234 FILLER_0_1000_209
*235 FILLER_0_1000_221
*236 FILLER_0_1000_233
*237 FILLER_0_1000_245
*238 FILLER_0_1000_251
*239 FILLER_0_1000_253
*240 FILLER_0_1000_265
*241 FILLER_0_1000_27
*242 FILLER_0_1000_277
*243 FILLER_0_1000_289
*244 FILLER_0_1000_29
*245 FILLER_0_1000_3
*246 FILLER_0_1000_301
*247 FILLER_0_1000_307
*248 FILLER_0_1000_309
*249 FILLER_0_1000_321
*250 FILLER_0_1000_333
*251 FILLER_0_1000_345
*252 FILLER_0_1000_357
*253 FILLER_0_1000_363
*254 FILLER_0_1000_365
*255 FILLER_0_1000_377
*256 FILLER_0_1000_389
*257 FILLER_0_1000_401
*258 FILLER_0_1000_41
*259 FILLER_0_1000_413
*260 FILLER_0_1000_419
*261 FILLER_0_1000_421
*262 FILLER_0_1000_433
*263 FILLER_0_1000_445
*264 FILLER_0_1000_457
*265 FILLER_0_1000_469
*266 FILLER_0_1000_475
*267 FILLER_0_1000_477
*268 FILLER_0_1000_489
*269 FILLER_0_1000_501
*270 FILLER_0_1000_513
*271 FILLER_0_1000_525
*272 FILLER_0_1000_53
*273 FILLER_0_1000_531
*274 FILLER_0_1000_533
*275 FILLER_0_1000_545
*276 FILLER_0_1000_557
*277 FILLER_0_1000_569
*278 FILLER_0_1000_581
*279 FILLER_0_1000_587
*280 FILLER_0_1000_589
*281 FILLER_0_1000_601
*282 FILLER_0_1000_613
*283 FILLER_0_1000_625
*284 FILLER_0_1000_637
*285 FILLER_0_1000_643
*286 FILLER_0_1000_645
*287 FILLER_0_1000_65
*288 FILLER_0_1000_657
*289 FILLER_0_1000_669
*290 FILLER_0_1000_681
*291 FILLER_0_1000_693
*292 FILLER_0_1000_699
*293 FILLER_0_1000_701
*294 FILLER_0_1000_713
*295 FILLER_0_1000_725
*296 FILLER_0_1000_737
*297 FILLER_0_1000_749
*298 FILLER_0_1000_755
*299 FILLER_0_1000_757
*300 FILLER_0_1000_769
*301 FILLER_0_1000_77
*302 FILLER_0_1000_781
*303 FILLER_0_1000_793
*304 FILLER_0_1000_805
*305 FILLER_0_1000_811
*306 FILLER_0_1000_813
*307 FILLER_0_1000_825
*308 FILLER_0_1000_83
*309 FILLER_0_1000_837
*310 FILLER_0_1000_849
*311 FILLER_0_1000_85
*312 FILLER_0_1000_861
*313 FILLER_0_1000_867
*314 FILLER_0_1000_869
*315 FILLER_0_1000_881
*316 FILLER_0_1000_893
*317 FILLER_0_1000_905
*318 FILLER_0_1000_917
*319 FILLER_0_1000_923
*320 FILLER_0_1000_925
*321 FILLER_0_1000_937
*322 FILLER_0_1000_949
*323 FILLER_0_1000_961
*324 FILLER_0_1000_97
*325 FILLER_0_1000_973
*326 FILLER_0_1000_979
*327 FILLER_0_1000_981
*328 FILLER_0_1000_993
*329 FILLER_0_1001_1001
*330 FILLER_0_1001_1007
*331 FILLER_0_1001_1009
*332 FILLER_0_1001_1021
*333 FILLER_0_1001_1033
*334 FILLER_0_1001_1045
*335 FILLER_0_1001_105
*336 FILLER_0_1001_1057
*337 FILLER_0_1001_111
*338 FILLER_0_1001_113
*339 FILLER_0_1001_125
*340 FILLER_0_1001_137
*341 FILLER_0_1001_149
*342 FILLER_0_1001_15
*343 FILLER_0_1001_161
*344 FILLER_0_1001_167
*345 FILLER_0_1001_169
*346 FILLER_0_1001_181
*347 FILLER_0_1001_193
*348 FILLER_0_1001_205
*349 FILLER_0_1001_217
*350 FILLER_0_1001_223
*351 FILLER_0_1001_225
*352 FILLER_0_1001_237
*353 FILLER_0_1001_249
*354 FILLER_0_1001_261
*355 FILLER_0_1001_27
*356 FILLER_0_1001_273
*357 FILLER_0_1001_279
*358 FILLER_0_1001_281
*359 FILLER_0_1001_293
*360 FILLER_0_1001_3
*361 FILLER_0_1001_305
*362 FILLER_0_1001_317
*363 FILLER_0_1001_329
*364 FILLER_0_1001_335
*365 FILLER_0_1001_337
*366 FILLER_0_1001_349
*367 FILLER_0_1001_361
*368 FILLER_0_1001_373
*369 FILLER_0_1001_385
*370 FILLER_0_1001_39
*371 FILLER_0_1001_391
*372 FILLER_0_1001_393
*373 FILLER_0_1001_405
*374 FILLER_0_1001_417
*375 FILLER_0_1001_429
*376 FILLER_0_1001_441
*377 FILLER_0_1001_447
*378 FILLER_0_1001_449
*379 FILLER_0_1001_461
*380 FILLER_0_1001_473
*381 FILLER_0_1001_485
*382 FILLER_0_1001_497
*383 FILLER_0_1001_503
*384 FILLER_0_1001_505
*385 FILLER_0_1001_51
*386 FILLER_0_1001_517
*387 FILLER_0_1001_529
*388 FILLER_0_1001_541
*389 FILLER_0_1001_55
*390 FILLER_0_1001_553
*391 FILLER_0_1001_559
*392 FILLER_0_1001_561
*393 FILLER_0_1001_57
*394 FILLER_0_1001_573
*395 FILLER_0_1001_585
*396 FILLER_0_1001_597
*397 FILLER_0_1001_609
*398 FILLER_0_1001_615
*399 FILLER_0_1001_617
*400 FILLER_0_1001_629
*401 FILLER_0_1001_641
*402 FILLER_0_1001_653
*403 FILLER_0_1001_665
*404 FILLER_0_1001_671
*405 FILLER_0_1001_673
*406 FILLER_0_1001_685
*407 FILLER_0_1001_69
*408 FILLER_0_1001_697
*409 FILLER_0_1001_709
*410 FILLER_0_1001_721
*411 FILLER_0_1001_727
*412 FILLER_0_1001_729
*413 FILLER_0_1001_741
*414 FILLER_0_1001_753
*415 FILLER_0_1001_765
*416 FILLER_0_1001_777
*417 FILLER_0_1001_783
*418 FILLER_0_1001_785
*419 FILLER_0_1001_797
*420 FILLER_0_1001_809
*421 FILLER_0_1001_81
*422 FILLER_0_1001_821
*423 FILLER_0_1001_833
*424 FILLER_0_1001_839
*425 FILLER_0_1001_841
*426 FILLER_0_1001_853
*427 FILLER_0_1001_865
*428 FILLER_0_1001_877
*429 FILLER_0_1001_889
*430 FILLER_0_1001_895
*431 FILLER_0_1001_897
*432 FILLER_0_1001_909
*433 FILLER_0_1001_921
*434 FILLER_0_1001_93
*435 FILLER_0_1001_933
*436 FILLER_0_1001_945
*437 FILLER_0_1001_951
*438 FILLER_0_1001_953
*439 FILLER_0_1001_965
*440 FILLER_0_1001_977
*441 FILLER_0_1001_989
*442 FILLER_0_1002_1005
*443 FILLER_0_1002_1017
*444 FILLER_0_1002_1029
*445 FILLER_0_1002_1035
*446 FILLER_0_1002_1037
*447 FILLER_0_1002_1049
*448 FILLER_0_1002_1057
*449 FILLER_0_1002_109
*450 FILLER_0_1002_121
*451 FILLER_0_1002_133
*452 FILLER_0_1002_139
*453 FILLER_0_1002_141
*454 FILLER_0_1002_15
*455 FILLER_0_1002_153
*456 FILLER_0_1002_165
*457 FILLER_0_1002_177
*458 FILLER_0_1002_189
*459 FILLER_0_1002_195
*460 FILLER_0_1002_197
*461 FILLER_0_1002_209
*462 FILLER_0_1002_221
*463 FILLER_0_1002_233
*464 FILLER_0_1002_245
*465 FILLER_0_1002_251
*466 FILLER_0_1002_253
*467 FILLER_0_1002_265
*468 FILLER_0_1002_27
*469 FILLER_0_1002_277
*470 FILLER_0_1002_289
*471 FILLER_0_1002_29
*472 FILLER_0_1002_3
*473 FILLER_0_1002_301
*474 FILLER_0_1002_307
*475 FILLER_0_1002_309
*476 FILLER_0_1002_321
*477 FILLER_0_1002_333
*478 FILLER_0_1002_345
*479 FILLER_0_1002_357
*480 FILLER_0_1002_363
*481 FILLER_0_1002_365
*482 FILLER_0_1002_377
*483 FILLER_0_1002_389
*484 FILLER_0_1002_401
*485 FILLER_0_1002_41
*486 FILLER_0_1002_413
*487 FILLER_0_1002_419
*488 FILLER_0_1002_421
*489 FILLER_0_1002_433
*490 FILLER_0_1002_445
*491 FILLER_0_1002_457
*492 FILLER_0_1002_469
*493 FILLER_0_1002_475
*494 FILLER_0_1002_477
*495 FILLER_0_1002_489
*496 FILLER_0_1002_501
*497 FILLER_0_1002_513
*498 FILLER_0_1002_525
*499 FILLER_0_1002_53
*500 FILLER_0_1002_531
*501 FILLER_0_1002_533
*502 FILLER_0_1002_545
*503 FILLER_0_1002_557
*504 FILLER_0_1002_569
*505 FILLER_0_1002_581
*506 FILLER_0_1002_587
*507 FILLER_0_1002_589
*508 FILLER_0_1002_601
*509 FILLER_0_1002_613
*510 FILLER_0_1002_625
*511 FILLER_0_1002_637
*512 FILLER_0_1002_643
*513 FILLER_0_1002_645
*514 FILLER_0_1002_65
*515 FILLER_0_1002_657
*516 FILLER_0_1002_669
*517 FILLER_0_1002_681
*518 FILLER_0_1002_693
*519 FILLER_0_1002_699
*520 FILLER_0_1002_701
*521 FILLER_0_1002_713
*522 FILLER_0_1002_725
*523 FILLER_0_1002_737
*524 FILLER_0_1002_749
*525 FILLER_0_1002_755
*526 FILLER_0_1002_757
*527 FILLER_0_1002_769
*528 FILLER_0_1002_77
*529 FILLER_0_1002_781
*530 FILLER_0_1002_793
*531 FILLER_0_1002_805
*532 FILLER_0_1002_811
*533 FILLER_0_1002_813
*534 FILLER_0_1002_825
*535 FILLER_0_1002_83
*536 FILLER_0_1002_837
*537 FILLER_0_1002_849
*538 FILLER_0_1002_85
*539 FILLER_0_1002_861
*540 FILLER_0_1002_867
*541 FILLER_0_1002_869
*542 FILLER_0_1002_881
*543 FILLER_0_1002_893
*544 FILLER_0_1002_905
*545 FILLER_0_1002_917
*546 FILLER_0_1002_923
*547 FILLER_0_1002_925
*548 FILLER_0_1002_937
*549 FILLER_0_1002_949
*550 FILLER_0_1002_961
*551 FILLER_0_1002_97
*552 FILLER_0_1002_973
*553 FILLER_0_1002_979
*554 FILLER_0_1002_981
*555 FILLER_0_1002_993
*556 FILLER_0_1003_1001
*557 FILLER_0_1003_1007
*558 FILLER_0_1003_1009
*559 FILLER_0_1003_1021
*560 FILLER_0_1003_1033
*561 FILLER_0_1003_1045
*562 FILLER_0_1003_105
*563 FILLER_0_1003_1057
*564 FILLER_0_1003_111
*565 FILLER_0_1003_113
*566 FILLER_0_1003_125
*567 FILLER_0_1003_137
*568 FILLER_0_1003_149
*569 FILLER_0_1003_15
*570 FILLER_0_1003_161
*571 FILLER_0_1003_167
*572 FILLER_0_1003_169
*573 FILLER_0_1003_181
*574 FILLER_0_1003_193
*575 FILLER_0_1003_205
*576 FILLER_0_1003_217
*577 FILLER_0_1003_223
*578 FILLER_0_1003_225
*579 FILLER_0_1003_237
*580 FILLER_0_1003_249
*581 FILLER_0_1003_261
*582 FILLER_0_1003_27
*583 FILLER_0_1003_273
*584 FILLER_0_1003_279
*585 FILLER_0_1003_281
*586 FILLER_0_1003_293
*587 FILLER_0_1003_3
*588 FILLER_0_1003_305
*589 FILLER_0_1003_317
*590 FILLER_0_1003_329
*591 FILLER_0_1003_335
*592 FILLER_0_1003_337
*593 FILLER_0_1003_349
*594 FILLER_0_1003_361
*595 FILLER_0_1003_373
*596 FILLER_0_1003_385
*597 FILLER_0_1003_39
*598 FILLER_0_1003_391
*599 FILLER_0_1003_393
*600 FILLER_0_1003_405
*601 FILLER_0_1003_417
*602 FILLER_0_1003_429
*603 FILLER_0_1003_441
*604 FILLER_0_1003_447
*605 FILLER_0_1003_449
*606 FILLER_0_1003_461
*607 FILLER_0_1003_473
*608 FILLER_0_1003_485
*609 FILLER_0_1003_497
*610 FILLER_0_1003_503
*611 FILLER_0_1003_505
*612 FILLER_0_1003_51
*613 FILLER_0_1003_517
*614 FILLER_0_1003_529
*615 FILLER_0_1003_541
*616 FILLER_0_1003_55
*617 FILLER_0_1003_553
*618 FILLER_0_1003_559
*619 FILLER_0_1003_561
*620 FILLER_0_1003_57
*621 FILLER_0_1003_573
*622 FILLER_0_1003_585
*623 FILLER_0_1003_597
*624 FILLER_0_1003_609
*625 FILLER_0_1003_615
*626 FILLER_0_1003_617
*627 FILLER_0_1003_629
*628 FILLER_0_1003_641
*629 FILLER_0_1003_653
*630 FILLER_0_1003_665
*631 FILLER_0_1003_671
*632 FILLER_0_1003_673
*633 FILLER_0_1003_685
*634 FILLER_0_1003_69
*635 FILLER_0_1003_697
*636 FILLER_0_1003_709
*637 FILLER_0_1003_721
*638 FILLER_0_1003_727
*639 FILLER_0_1003_729
*640 FILLER_0_1003_741
*641 FILLER_0_1003_753
*642 FILLER_0_1003_765
*643 FILLER_0_1003_777
*644 FILLER_0_1003_783
*645 FILLER_0_1003_785
*646 FILLER_0_1003_797
*647 FILLER_0_1003_809
*648 FILLER_0_1003_81
*649 FILLER_0_1003_821
*650 FILLER_0_1003_833
*651 FILLER_0_1003_839
*652 FILLER_0_1003_841
*653 FILLER_0_1003_853
*654 FILLER_0_1003_865
*655 FILLER_0_1003_877
*656 FILLER_0_1003_889
*657 FILLER_0_1003_895
*658 FILLER_0_1003_897
*659 FILLER_0_1003_909
*660 FILLER_0_1003_921
*661 FILLER_0_1003_93
*662 FILLER_0_1003_933
*663 FILLER_0_1003_945
*664 FILLER_0_1003_951
*665 FILLER_0_1003_953
*666 FILLER_0_1003_965
*667 FILLER_0_1003_977
*668 FILLER_0_1003_989
*669 FILLER_0_1004_1005
*670 FILLER_0_1004_1017
*671 FILLER_0_1004_1029
*672 FILLER_0_1004_1035
*673 FILLER_0_1004_1037
*674 FILLER_0_1004_1049
*675 FILLER_0_1004_1057
*676 FILLER_0_1004_109
*677 FILLER_0_1004_121
*678 FILLER_0_1004_133
*679 FILLER_0_1004_139
*680 FILLER_0_1004_141
*681 FILLER_0_1004_15
*682 FILLER_0_1004_153
*683 FILLER_0_1004_165
*684 FILLER_0_1004_177
*685 FILLER_0_1004_189
*686 FILLER_0_1004_195
*687 FILLER_0_1004_197
*688 FILLER_0_1004_209
*689 FILLER_0_1004_221
*690 FILLER_0_1004_233
*691 FILLER_0_1004_245
*692 FILLER_0_1004_251
*693 FILLER_0_1004_253
*694 FILLER_0_1004_265
*695 FILLER_0_1004_27
*696 FILLER_0_1004_277
*697 FILLER_0_1004_289
*698 FILLER_0_1004_29
*699 FILLER_0_1004_3
*700 FILLER_0_1004_301
*701 FILLER_0_1004_307
*702 FILLER_0_1004_309
*703 FILLER_0_1004_321
*704 FILLER_0_1004_333
*705 FILLER_0_1004_345
*706 FILLER_0_1004_357
*707 FILLER_0_1004_363
*708 FILLER_0_1004_365
*709 FILLER_0_1004_377
*710 FILLER_0_1004_389
*711 FILLER_0_1004_401
*712 FILLER_0_1004_41
*713 FILLER_0_1004_413
*714 FILLER_0_1004_419
*715 FILLER_0_1004_421
*716 FILLER_0_1004_433
*717 FILLER_0_1004_445
*718 FILLER_0_1004_457
*719 FILLER_0_1004_469
*720 FILLER_0_1004_475
*721 FILLER_0_1004_477
*722 FILLER_0_1004_489
*723 FILLER_0_1004_501
*724 FILLER_0_1004_513
*725 FILLER_0_1004_525
*726 FILLER_0_1004_53
*727 FILLER_0_1004_531
*728 FILLER_0_1004_533
*729 FILLER_0_1004_545
*730 FILLER_0_1004_557
*731 FILLER_0_1004_569
*732 FILLER_0_1004_581
*733 FILLER_0_1004_587
*734 FILLER_0_1004_589
*735 FILLER_0_1004_601
*736 FILLER_0_1004_613
*737 FILLER_0_1004_625
*738 FILLER_0_1004_637
*739 FILLER_0_1004_643
*740 FILLER_0_1004_645
*741 FILLER_0_1004_65
*742 FILLER_0_1004_657
*743 FILLER_0_1004_669
*744 FILLER_0_1004_681
*745 FILLER_0_1004_693
*746 FILLER_0_1004_699
*747 FILLER_0_1004_701
*748 FILLER_0_1004_713
*749 FILLER_0_1004_725
*750 FILLER_0_1004_737
*751 FILLER_0_1004_749
*752 FILLER_0_1004_755
*753 FILLER_0_1004_757
*754 FILLER_0_1004_769
*755 FILLER_0_1004_77
*756 FILLER_0_1004_781
*757 FILLER_0_1004_793
*758 FILLER_0_1004_805
*759 FILLER_0_1004_811
*760 FILLER_0_1004_813
*761 FILLER_0_1004_825
*762 FILLER_0_1004_83
*763 FILLER_0_1004_837
*764 FILLER_0_1004_849
*765 FILLER_0_1004_85
*766 FILLER_0_1004_861
*767 FILLER_0_1004_867
*768 FILLER_0_1004_869
*769 FILLER_0_1004_881
*770 FILLER_0_1004_893
*771 FILLER_0_1004_905
*772 FILLER_0_1004_917
*773 FILLER_0_1004_923
*774 FILLER_0_1004_925
*775 FILLER_0_1004_937
*776 FILLER_0_1004_949
*777 FILLER_0_1004_961
*778 FILLER_0_1004_97
*779 FILLER_0_1004_973
*780 FILLER_0_1004_979
*781 FILLER_0_1004_981
*782 FILLER_0_1004_993
*783 FILLER_0_1005_1001
*784 FILLER_0_1005_1007
*785 FILLER_0_1005_1009
*786 FILLER_0_1005_1021
*787 FILLER_0_1005_1033
*788 FILLER_0_1005_1045
*789 FILLER_0_1005_105
*790 FILLER_0_1005_1057
*791 FILLER_0_1005_111
*792 FILLER_0_1005_113
*793 FILLER_0_1005_125
*794 FILLER_0_1005_137
*795 FILLER_0_1005_149
*796 FILLER_0_1005_15
*797 FILLER_0_1005_161
*798 FILLER_0_1005_167
*799 FILLER_0_1005_169
*800 FILLER_0_1005_181
*801 FILLER_0_1005_193
*802 FILLER_0_1005_205
*803 FILLER_0_1005_217
*804 FILLER_0_1005_223
*805 FILLER_0_1005_225
*806 FILLER_0_1005_237
*807 FILLER_0_1005_249
*808 FILLER_0_1005_261
*809 FILLER_0_1005_27
*810 FILLER_0_1005_273
*811 FILLER_0_1005_279
*812 FILLER_0_1005_281
*813 FILLER_0_1005_293
*814 FILLER_0_1005_3
*815 FILLER_0_1005_305
*816 FILLER_0_1005_317
*817 FILLER_0_1005_329
*818 FILLER_0_1005_335
*819 FILLER_0_1005_337
*820 FILLER_0_1005_349
*821 FILLER_0_1005_361
*822 FILLER_0_1005_373
*823 FILLER_0_1005_385
*824 FILLER_0_1005_39
*825 FILLER_0_1005_391
*826 FILLER_0_1005_393
*827 FILLER_0_1005_405
*828 FILLER_0_1005_417
*829 FILLER_0_1005_429
*830 FILLER_0_1005_441
*831 FILLER_0_1005_447
*832 FILLER_0_1005_449
*833 FILLER_0_1005_461
*834 FILLER_0_1005_473
*835 FILLER_0_1005_485
*836 FILLER_0_1005_497
*837 FILLER_0_1005_503
*838 FILLER_0_1005_505
*839 FILLER_0_1005_51
*840 FILLER_0_1005_517
*841 FILLER_0_1005_529
*842 FILLER_0_1005_541
*843 FILLER_0_1005_55
*844 FILLER_0_1005_553
*845 FILLER_0_1005_559
*846 FILLER_0_1005_561
*847 FILLER_0_1005_57
*848 FILLER_0_1005_573
*849 FILLER_0_1005_585
*850 FILLER_0_1005_597
*851 FILLER_0_1005_609
*852 FILLER_0_1005_615
*853 FILLER_0_1005_617
*854 FILLER_0_1005_629
*855 FILLER_0_1005_641
*856 FILLER_0_1005_653
*857 FILLER_0_1005_665
*858 FILLER_0_1005_671
*859 FILLER_0_1005_673
*860 FILLER_0_1005_685
*861 FILLER_0_1005_69
*862 FILLER_0_1005_697
*863 FILLER_0_1005_709
*864 FILLER_0_1005_721
*865 FILLER_0_1005_727
*866 FILLER_0_1005_729
*867 FILLER_0_1005_741
*868 FILLER_0_1005_753
*869 FILLER_0_1005_765
*870 FILLER_0_1005_777
*871 FILLER_0_1005_783
*872 FILLER_0_1005_785
*873 FILLER_0_1005_797
*874 FILLER_0_1005_809
*875 FILLER_0_1005_81
*876 FILLER_0_1005_821
*877 FILLER_0_1005_833
*878 FILLER_0_1005_839
*879 FILLER_0_1005_841
*880 FILLER_0_1005_853
*881 FILLER_0_1005_865
*882 FILLER_0_1005_877
*883 FILLER_0_1005_889
*884 FILLER_0_1005_895
*885 FILLER_0_1005_897
*886 FILLER_0_1005_909
*887 FILLER_0_1005_921
*888 FILLER_0_1005_93
*889 FILLER_0_1005_933
*890 FILLER_0_1005_945
*891 FILLER_0_1005_951
*892 FILLER_0_1005_953
*893 FILLER_0_1005_965
*894 FILLER_0_1005_977
*895 FILLER_0_1005_989
*896 FILLER_0_1006_1005
*897 FILLER_0_1006_1017
*898 FILLER_0_1006_1029
*899 FILLER_0_1006_1035
*900 FILLER_0_1006_1037
*901 FILLER_0_1006_1049
*902 FILLER_0_1006_1057
*903 FILLER_0_1006_109
*904 FILLER_0_1006_121
*905 FILLER_0_1006_133
*906 FILLER_0_1006_139
*907 FILLER_0_1006_141
*908 FILLER_0_1006_15
*909 FILLER_0_1006_153
*910 FILLER_0_1006_165
*911 FILLER_0_1006_177
*912 FILLER_0_1006_189
*913 FILLER_0_1006_195
*914 FILLER_0_1006_197
*915 FILLER_0_1006_209
*916 FILLER_0_1006_221
*917 FILLER_0_1006_233
*918 FILLER_0_1006_245
*919 FILLER_0_1006_251
*920 FILLER_0_1006_253
*921 FILLER_0_1006_265
*922 FILLER_0_1006_27
*923 FILLER_0_1006_277
*924 FILLER_0_1006_289
*925 FILLER_0_1006_29
*926 FILLER_0_1006_3
*927 FILLER_0_1006_301
*928 FILLER_0_1006_307
*929 FILLER_0_1006_309
*930 FILLER_0_1006_321
*931 FILLER_0_1006_333
*932 FILLER_0_1006_345
*933 FILLER_0_1006_357
*934 FILLER_0_1006_363
*935 FILLER_0_1006_365
*936 FILLER_0_1006_377
*937 FILLER_0_1006_389
*938 FILLER_0_1006_401
*939 FILLER_0_1006_41
*940 FILLER_0_1006_413
*941 FILLER_0_1006_419
*942 FILLER_0_1006_421
*943 FILLER_0_1006_433
*944 FILLER_0_1006_445
*945 FILLER_0_1006_457
*946 FILLER_0_1006_469
*947 FILLER_0_1006_475
*948 FILLER_0_1006_477
*949 FILLER_0_1006_489
*950 FILLER_0_1006_501
*951 FILLER_0_1006_513
*952 FILLER_0_1006_525
*953 FILLER_0_1006_53
*954 FILLER_0_1006_531
*955 FILLER_0_1006_533
*956 FILLER_0_1006_545
*957 FILLER_0_1006_557
*958 FILLER_0_1006_569
*959 FILLER_0_1006_581
*960 FILLER_0_1006_587
*961 FILLER_0_1006_589
*962 FILLER_0_1006_601
*963 FILLER_0_1006_613
*964 FILLER_0_1006_625
*965 FILLER_0_1006_637
*966 FILLER_0_1006_643
*967 FILLER_0_1006_645
*968 FILLER_0_1006_65
*969 FILLER_0_1006_657
*970 FILLER_0_1006_669
*971 FILLER_0_1006_681
*972 FILLER_0_1006_693
*973 FILLER_0_1006_699
*974 FILLER_0_1006_701
*975 FILLER_0_1006_713
*976 FILLER_0_1006_725
*977 FILLER_0_1006_737
*978 FILLER_0_1006_749
*979 FILLER_0_1006_755
*980 FILLER_0_1006_757
*981 FILLER_0_1006_769
*982 FILLER_0_1006_77
*983 FILLER_0_1006_781
*984 FILLER_0_1006_793
*985 FILLER_0_1006_805
*986 FILLER_0_1006_811
*987 FILLER_0_1006_813
*988 FILLER_0_1006_825
*989 FILLER_0_1006_83
*990 FILLER_0_1006_837
*991 FILLER_0_1006_849
*992 FILLER_0_1006_85
*993 FILLER_0_1006_861
*994 FILLER_0_1006_867
*995 FILLER_0_1006_869
*996 FILLER_0_1006_881
*997 FILLER_0_1006_893
*998 FILLER_0_1006_905
*999 FILLER_0_1006_917
*1000 FILLER_0_1006_923
*1001 FILLER_0_1006_925
*1002 FILLER_0_1006_937
*1003 FILLER_0_1006_949
*1004 FILLER_0_1006_961
*1005 FILLER_0_1006_97
*1006 FILLER_0_1006_973
*1007 FILLER_0_1006_979
*1008 FILLER_0_1006_981
*1009 FILLER_0_1006_993
*1010 FILLER_0_1007_1001
*1011 FILLER_0_1007_1007
*1012 FILLER_0_1007_1009
*1013 FILLER_0_1007_1021
*1014 FILLER_0_1007_1033
*1015 FILLER_0_1007_1045
*1016 FILLER_0_1007_105
*1017 FILLER_0_1007_1057
*1018 FILLER_0_1007_111
*1019 FILLER_0_1007_113
*1020 FILLER_0_1007_125
*1021 FILLER_0_1007_137
*1022 FILLER_0_1007_149
*1023 FILLER_0_1007_15
*1024 FILLER_0_1007_161
*1025 FILLER_0_1007_167
*1026 FILLER_0_1007_169
*1027 FILLER_0_1007_181
*1028 FILLER_0_1007_193
*1029 FILLER_0_1007_205
*1030 FILLER_0_1007_217
*1031 FILLER_0_1007_223
*1032 FILLER_0_1007_225
*1033 FILLER_0_1007_237
*1034 FILLER_0_1007_249
*1035 FILLER_0_1007_261
*1036 FILLER_0_1007_27
*1037 FILLER_0_1007_273
*1038 FILLER_0_1007_279
*1039 FILLER_0_1007_281
*1040 FILLER_0_1007_293
*1041 FILLER_0_1007_3
*1042 FILLER_0_1007_305
*1043 FILLER_0_1007_317
*1044 FILLER_0_1007_329
*1045 FILLER_0_1007_335
*1046 FILLER_0_1007_337
*1047 FILLER_0_1007_349
*1048 FILLER_0_1007_361
*1049 FILLER_0_1007_373
*1050 FILLER_0_1007_385
*1051 FILLER_0_1007_39
*1052 FILLER_0_1007_391
*1053 FILLER_0_1007_393
*1054 FILLER_0_1007_405
*1055 FILLER_0_1007_417
*1056 FILLER_0_1007_429
*1057 FILLER_0_1007_441
*1058 FILLER_0_1007_447
*1059 FILLER_0_1007_449
*1060 FILLER_0_1007_461
*1061 FILLER_0_1007_473
*1062 FILLER_0_1007_485
*1063 FILLER_0_1007_497
*1064 FILLER_0_1007_503
*1065 FILLER_0_1007_505
*1066 FILLER_0_1007_51
*1067 FILLER_0_1007_517
*1068 FILLER_0_1007_529
*1069 FILLER_0_1007_541
*1070 FILLER_0_1007_55
*1071 FILLER_0_1007_553
*1072 FILLER_0_1007_559
*1073 FILLER_0_1007_561
*1074 FILLER_0_1007_57
*1075 FILLER_0_1007_573
*1076 FILLER_0_1007_585
*1077 FILLER_0_1007_597
*1078 FILLER_0_1007_609
*1079 FILLER_0_1007_615
*1080 FILLER_0_1007_617
*1081 FILLER_0_1007_629
*1082 FILLER_0_1007_641
*1083 FILLER_0_1007_653
*1084 FILLER_0_1007_665
*1085 FILLER_0_1007_671
*1086 FILLER_0_1007_673
*1087 FILLER_0_1007_685
*1088 FILLER_0_1007_69
*1089 FILLER_0_1007_697
*1090 FILLER_0_1007_709
*1091 FILLER_0_1007_721
*1092 FILLER_0_1007_727
*1093 FILLER_0_1007_729
*1094 FILLER_0_1007_741
*1095 FILLER_0_1007_753
*1096 FILLER_0_1007_765
*1097 FILLER_0_1007_777
*1098 FILLER_0_1007_783
*1099 FILLER_0_1007_785
*1100 FILLER_0_1007_797
*1101 FILLER_0_1007_809
*1102 FILLER_0_1007_81
*1103 FILLER_0_1007_821
*1104 FILLER_0_1007_833
*1105 FILLER_0_1007_839
*1106 FILLER_0_1007_841
*1107 FILLER_0_1007_853
*1108 FILLER_0_1007_865
*1109 FILLER_0_1007_877
*1110 FILLER_0_1007_889
*1111 FILLER_0_1007_895
*1112 FILLER_0_1007_897
*1113 FILLER_0_1007_909
*1114 FILLER_0_1007_921
*1115 FILLER_0_1007_93
*1116 FILLER_0_1007_933
*1117 FILLER_0_1007_945
*1118 FILLER_0_1007_951
*1119 FILLER_0_1007_953
*1120 FILLER_0_1007_965
*1121 FILLER_0_1007_977
*1122 FILLER_0_1007_989
*1123 FILLER_0_1008_1005
*1124 FILLER_0_1008_1017
*1125 FILLER_0_1008_1029
*1126 FILLER_0_1008_1035
*1127 FILLER_0_1008_1037
*1128 FILLER_0_1008_1049
*1129 FILLER_0_1008_1057
*1130 FILLER_0_1008_109
*1131 FILLER_0_1008_121
*1132 FILLER_0_1008_133
*1133 FILLER_0_1008_139
*1134 FILLER_0_1008_141
*1135 FILLER_0_1008_15
*1136 FILLER_0_1008_153
*1137 FILLER_0_1008_165
*1138 FILLER_0_1008_177
*1139 FILLER_0_1008_189
*1140 FILLER_0_1008_195
*1141 FILLER_0_1008_197
*1142 FILLER_0_1008_209
*1143 FILLER_0_1008_221
*1144 FILLER_0_1008_233
*1145 FILLER_0_1008_245
*1146 FILLER_0_1008_251
*1147 FILLER_0_1008_253
*1148 FILLER_0_1008_265
*1149 FILLER_0_1008_27
*1150 FILLER_0_1008_277
*1151 FILLER_0_1008_289
*1152 FILLER_0_1008_29
*1153 FILLER_0_1008_3
*1154 FILLER_0_1008_301
*1155 FILLER_0_1008_307
*1156 FILLER_0_1008_309
*1157 FILLER_0_1008_321
*1158 FILLER_0_1008_333
*1159 FILLER_0_1008_345
*1160 FILLER_0_1008_357
*1161 FILLER_0_1008_363
*1162 FILLER_0_1008_365
*1163 FILLER_0_1008_377
*1164 FILLER_0_1008_389
*1165 FILLER_0_1008_401
*1166 FILLER_0_1008_41
*1167 FILLER_0_1008_413
*1168 FILLER_0_1008_419
*1169 FILLER_0_1008_421
*1170 FILLER_0_1008_433
*1171 FILLER_0_1008_445
*1172 FILLER_0_1008_457
*1173 FILLER_0_1008_469
*1174 FILLER_0_1008_475
*1175 FILLER_0_1008_477
*1176 FILLER_0_1008_489
*1177 FILLER_0_1008_501
*1178 FILLER_0_1008_513
*1179 FILLER_0_1008_525
*1180 FILLER_0_1008_53
*1181 FILLER_0_1008_531
*1182 FILLER_0_1008_533
*1183 FILLER_0_1008_545
*1184 FILLER_0_1008_557
*1185 FILLER_0_1008_569
*1186 FILLER_0_1008_581
*1187 FILLER_0_1008_587
*1188 FILLER_0_1008_589
*1189 FILLER_0_1008_601
*1190 FILLER_0_1008_613
*1191 FILLER_0_1008_625
*1192 FILLER_0_1008_637
*1193 FILLER_0_1008_643
*1194 FILLER_0_1008_645
*1195 FILLER_0_1008_65
*1196 FILLER_0_1008_657
*1197 FILLER_0_1008_669
*1198 FILLER_0_1008_681
*1199 FILLER_0_1008_693
*1200 FILLER_0_1008_699
*1201 FILLER_0_1008_701
*1202 FILLER_0_1008_713
*1203 FILLER_0_1008_725
*1204 FILLER_0_1008_737
*1205 FILLER_0_1008_749
*1206 FILLER_0_1008_755
*1207 FILLER_0_1008_757
*1208 FILLER_0_1008_769
*1209 FILLER_0_1008_77
*1210 FILLER_0_1008_781
*1211 FILLER_0_1008_793
*1212 FILLER_0_1008_805
*1213 FILLER_0_1008_811
*1214 FILLER_0_1008_813
*1215 FILLER_0_1008_825
*1216 FILLER_0_1008_83
*1217 FILLER_0_1008_837
*1218 FILLER_0_1008_849
*1219 FILLER_0_1008_85
*1220 FILLER_0_1008_861
*1221 FILLER_0_1008_867
*1222 FILLER_0_1008_869
*1223 FILLER_0_1008_881
*1224 FILLER_0_1008_893
*1225 FILLER_0_1008_905
*1226 FILLER_0_1008_917
*1227 FILLER_0_1008_923
*1228 FILLER_0_1008_925
*1229 FILLER_0_1008_937
*1230 FILLER_0_1008_949
*1231 FILLER_0_1008_961
*1232 FILLER_0_1008_97
*1233 FILLER_0_1008_973
*1234 FILLER_0_1008_979
*1235 FILLER_0_1008_981
*1236 FILLER_0_1008_993
*1237 FILLER_0_1009_1001
*1238 FILLER_0_1009_1007
*1239 FILLER_0_1009_1009
*1240 FILLER_0_1009_1021
*1241 FILLER_0_1009_1033
*1242 FILLER_0_1009_1045
*1243 FILLER_0_1009_105
*1244 FILLER_0_1009_1057
*1245 FILLER_0_1009_111
*1246 FILLER_0_1009_113
*1247 FILLER_0_1009_125
*1248 FILLER_0_1009_137
*1249 FILLER_0_1009_149
*1250 FILLER_0_1009_15
*1251 FILLER_0_1009_161
*1252 FILLER_0_1009_167
*1253 FILLER_0_1009_169
*1254 FILLER_0_1009_181
*1255 FILLER_0_1009_193
*1256 FILLER_0_1009_205
*1257 FILLER_0_1009_217
*1258 FILLER_0_1009_223
*1259 FILLER_0_1009_225
*1260 FILLER_0_1009_237
*1261 FILLER_0_1009_249
*1262 FILLER_0_1009_261
*1263 FILLER_0_1009_27
*1264 FILLER_0_1009_273
*1265 FILLER_0_1009_279
*1266 FILLER_0_1009_281
*1267 FILLER_0_1009_293
*1268 FILLER_0_1009_3
*1269 FILLER_0_1009_305
*1270 FILLER_0_1009_317
*1271 FILLER_0_1009_329
*1272 FILLER_0_1009_335
*1273 FILLER_0_1009_337
*1274 FILLER_0_1009_349
*1275 FILLER_0_1009_361
*1276 FILLER_0_1009_373
*1277 FILLER_0_1009_385
*1278 FILLER_0_1009_39
*1279 FILLER_0_1009_391
*1280 FILLER_0_1009_393
*1281 FILLER_0_1009_405
*1282 FILLER_0_1009_417
*1283 FILLER_0_1009_429
*1284 FILLER_0_1009_441
*1285 FILLER_0_1009_447
*1286 FILLER_0_1009_449
*1287 FILLER_0_1009_461
*1288 FILLER_0_1009_473
*1289 FILLER_0_1009_485
*1290 FILLER_0_1009_497
*1291 FILLER_0_1009_503
*1292 FILLER_0_1009_505
*1293 FILLER_0_1009_51
*1294 FILLER_0_1009_517
*1295 FILLER_0_1009_529
*1296 FILLER_0_1009_541
*1297 FILLER_0_1009_55
*1298 FILLER_0_1009_553
*1299 FILLER_0_1009_559
*1300 FILLER_0_1009_561
*1301 FILLER_0_1009_57
*1302 FILLER_0_1009_573
*1303 FILLER_0_1009_585
*1304 FILLER_0_1009_597
*1305 FILLER_0_1009_609
*1306 FILLER_0_1009_615
*1307 FILLER_0_1009_617
*1308 FILLER_0_1009_629
*1309 FILLER_0_1009_641
*1310 FILLER_0_1009_653
*1311 FILLER_0_1009_665
*1312 FILLER_0_1009_671
*1313 FILLER_0_1009_673
*1314 FILLER_0_1009_685
*1315 FILLER_0_1009_69
*1316 FILLER_0_1009_697
*1317 FILLER_0_1009_709
*1318 FILLER_0_1009_721
*1319 FILLER_0_1009_727
*1320 FILLER_0_1009_729
*1321 FILLER_0_1009_741
*1322 FILLER_0_1009_753
*1323 FILLER_0_1009_765
*1324 FILLER_0_1009_777