*SPEF "ieee 1481-1999"
*DESIGN "user_proj_solar"
*DATE "11:11:11 Fri 11 11, 1111"
*VENDOR "OpenRCX"
*PROGRAM "Parallel Extraction"
*VERSION "1.0"
*DESIGN_FLOW "NAME_SCOPE LOCAL" "PIN_CAP NONE"
*DIVIDER /
*DELIMITER :
*BUS_DELIMITER []
*T_UNIT 1 NS
*C_UNIT 1 PF
*R_UNIT 1 OHM
*L_UNIT 1 HENRY

*NAME_MAP
*1 io_in[0]
*2 io_in[10]
*3 io_in[11]
*4 io_in[12]
*5 io_in[13]
*6 io_in[14]
*7 io_in[15]
*8 io_in[16]
*9 io_in[17]
*10 io_in[18]
*11 io_in[19]
*12 io_in[1]
*13 io_in[20]
*14 io_in[21]
*15 io_in[22]
*16 io_in[23]
*17 io_in[2]
*18 io_in[3]
*19 io_in[4]
*20 io_in[5]
*21 io_in[6]
*22 io_in[7]
*23 io_in[8]
*24 io_in[9]
*25 net29
*26 net38
*27 net39
*28 net30
*29 net31
*30 net32
*31 net33
*32 net34
*33 net35
*34 net36
*35 net37
*36 net40
*37 io_out[0]
*38 io_out[10]
*39 io_out[11]
*40 io_out[1]
*41 io_out[2]
*42 io_out[3]
*43 io_out[4]
*44 io_out[5]
*45 io_out[6]
*46 io_out[7]
*47 io_out[8]
*48 io_out[9]
*51 wb_clk_i
*52 wb_rst_i
*53 _000_
*54 _001_
*55 _002_
*56 _003_
*57 _004_
*58 _005_
*59 _006_
*60 _007_
*61 _008_
*62 _009_
*63 _010_
*64 _011_
*65 _012_
*66 _013_
*67 _014_
*68 _015_
*69 _016_
*70 _017_
*71 _018_
*72 _019_
*73 _020_
*74 _021_
*75 _022_
*76 _023_
*77 _024_
*78 _025_
*79 _026_
*80 _027_
*81 _028_
*82 _029_
*83 _030_
*84 _031_
*85 _032_
*86 _033_
*87 _034_
*88 _035_
*89 clknet_0_wb_clk_i
*90 clknet_1_0_0_wb_clk_i
*91 clknet_1_1_0_wb_clk_i
*92 clknet_2_0__leaf_wb_clk_i
*93 clknet_2_1__leaf_wb_clk_i
*94 clknet_2_2__leaf_wb_clk_i
*95 clknet_2_3__leaf_wb_clk_i
*96 display_mux\.current_display\[0\]
*97 display_mux\.current_display\[10\]
*98 display_mux\.current_display\[11\]
*99 display_mux\.current_display\[1\]
*100 display_mux\.current_display\[2\]
*101 display_mux\.current_display\[3\]
*102 display_mux\.current_display\[4\]
*103 display_mux\.current_display\[5\]
*104 display_mux\.current_display\[6\]
*105 display_mux\.current_display\[7\]
*106 display_mux\.current_display\[8\]
*107 display_mux\.current_display\[9\]
*108 net1
*109 net10
*110 net11
*111 net12
*112 net13
*113 net14
*114 net15
*115 net16
*116 net17
*117 net18
*118 net19
*119 net2
*120 net20
*121 net21
*122 net22
*123 net23
*124 net24
*125 net25
*126 net26
*127 net27
*128 net28
*129 net3
*130 net4
*131 net41
*132 net42
*133 net43
*134 net44
*135 net45
*136 net46
*137 net47
*138 net48
*139 net49
*140 net5
*141 net50
*142 net51
*143 net52
*144 net53
*145 net54
*146 net55
*147 net56
*148 net57
*149 net58
*150 net59
*151 net6
*152 net60
*153 net61
*154 net62
*155 net63
*156 net64
*157 net65
*158 net66
*159 net67
*160 net68
*161 net69
*162 net7
*163 net70
*164 net71
*165 net72
*166 net73
*167 net74
*168 net75
*169 net76
*170 net77
*171 net78
*172 net79
*173 net8
*174 net80
*175 net81
*176 net82
*177 net83
*178 net84
*179 net85
*180 net86
*181 net87
*182 net88
*183 net9
*184 solar_monitor\.adc_current_out\[0\]
*185 solar_monitor\.adc_current_out\[10\]
*186 solar_monitor\.adc_current_out\[11\]
*187 solar_monitor\.adc_current_out\[1\]
*188 solar_monitor\.adc_current_out\[2\]
*189 solar_monitor\.adc_current_out\[3\]
*190 solar_monitor\.adc_current_out\[4\]
*191 solar_monitor\.adc_current_out\[5\]
*192 solar_monitor\.adc_current_out\[6\]
*193 solar_monitor\.adc_current_out\[7\]
*194 solar_monitor\.adc_current_out\[8\]
*195 solar_monitor\.adc_current_out\[9\]
*196 ANTENNA_1
*197 ANTENNA_10
*198 ANTENNA_100
*199 ANTENNA_101
*200 ANTENNA_102
*201 ANTENNA_103
*202 ANTENNA_104
*203 ANTENNA_105
*204 ANTENNA_106
*205 ANTENNA_107
*206 ANTENNA_108
*207 ANTENNA_109
*208 ANTENNA_11
*209 ANTENNA_110
*210 ANTENNA_111
*211 ANTENNA_112
*212 ANTENNA_113
*213 ANTENNA_114
*214 ANTENNA_115
*215 ANTENNA_116
*216 ANTENNA_117
*217 ANTENNA_118
*218 ANTENNA_12
*219 ANTENNA_13
*220 ANTENNA_14
*221 ANTENNA_15
*222 ANTENNA_16
*223 ANTENNA_17
*224 ANTENNA_18
*225 ANTENNA_19
*226 ANTENNA_2
*227 ANTENNA_20
*228 ANTENNA_21
*229 ANTENNA_22
*230 ANTENNA_23
*231 ANTENNA_24
*232 ANTENNA_25
*233 ANTENNA_26
*234 ANTENNA_27
*235 ANTENNA_28
*236 ANTENNA_29
*237 ANTENNA_3
*238 ANTENNA_30
*239 ANTENNA_31
*240 ANTENNA_32
*241 ANTENNA_33
*242 ANTENNA_34
*243 ANTENNA_35
*244 ANTENNA_36
*245 ANTENNA_37
*246 ANTENNA_38
*247 ANTENNA_39
*248 ANTENNA_4
*249 ANTENNA_40
*250 ANTENNA_41
*251 ANTENNA_42
*252 ANTENNA_43
*253 ANTENNA_44
*254 ANTENNA_45
*255 ANTENNA_46
*256 ANTENNA_47
*257 ANTENNA_48
*258 ANTENNA_49
*259 ANTENNA_5
*260 ANTENNA_50
*261 ANTENNA_51
*262 ANTENNA_52
*263 ANTENNA_53
*264 ANTENNA_54
*265 ANTENNA_55
*266 ANTENNA_56
*267 ANTENNA_57
*268 ANTENNA_58
*269 ANTENNA_59
*270 ANTENNA_6
*271 ANTENNA_60
*272 ANTENNA_61
*273 ANTENNA_62
*274 ANTENNA_63
*275 ANTENNA_64
*276 ANTENNA_65
*277 ANTENNA_66
*278 ANTENNA_67
*279 ANTENNA_68
*280 ANTENNA_69
*281 ANTENNA_7
*282 ANTENNA_70
*283 ANTENNA_71
*284 ANTENNA_72
*285 ANTENNA_73
*286 ANTENNA_74
*287 ANTENNA_75
*288 ANTENNA_76
*289 ANTENNA_77
*290 ANTENNA_78
*291 ANTENNA_79
*292 ANTENNA_8
*293 ANTENNA_80
*294 ANTENNA_81
*295 ANTENNA_82
*296 ANTENNA_83
*297 ANTENNA_84
*298 ANTENNA_85
*299 ANTENNA_86
*300 ANTENNA_87
*301 ANTENNA_88
*302 ANTENNA_89
*303 ANTENNA_9
*304 ANTENNA_90
*305 ANTENNA_91
*306 ANTENNA_92
*307 ANTENNA_93
*308 ANTENNA_94
*309 ANTENNA_95
*310 ANTENNA_96
*311 ANTENNA_97
*312 ANTENNA_98
*313 ANTENNA_99
*314 ANTENNA__036__A
*315 ANTENNA__037__A
*316 ANTENNA__038__A
*317 ANTENNA__039__A
*318 ANTENNA__040__A
*319 ANTENNA__041__A
*320 ANTENNA__042__A
*321 ANTENNA__043__A
*322 ANTENNA__044__A
*323 ANTENNA__045__A
*324 ANTENNA__046__A
*325 ANTENNA__047__A
*326 ANTENNA__048__A
*327 ANTENNA__049__A
*328 ANTENNA__050__A
*329 ANTENNA__051__A
*330 ANTENNA__052__A
*331 ANTENNA__053__A
*332 ANTENNA__054__A
*333 ANTENNA__055__A
*334 ANTENNA__056__A
*335 ANTENNA__057__A
*336 ANTENNA__058__A
*337 ANTENNA__059__A
*338 ANTENNA__060__A
*339 ANTENNA__061__A
*340 ANTENNA__062__A
*341 ANTENNA__063__A
*342 ANTENNA__064__A
*343 ANTENNA__065__A
*344 ANTENNA__066__A
*345 ANTENNA__067__A
*346 ANTENNA__068__A
*347 ANTENNA__069__A
*348 ANTENNA__070__A
*349 ANTENNA__071__A
*350 ANTENNA__072__CLK
*351 ANTENNA__073__CLK
*352 ANTENNA__074__CLK
*353 ANTENNA__075__CLK
*354 ANTENNA__076__CLK
*355 ANTENNA__077__CLK
*356 ANTENNA__078__CLK
*357 ANTENNA__079__CLK
*358 ANTENNA__080__CLK
*359 ANTENNA__081__CLK
*360 ANTENNA__082__CLK
*361 ANTENNA__083__CLK
*362 ANTENNA__084__CLK
*363 ANTENNA__084__D
*364 ANTENNA__085__CLK
*365 ANTENNA__085__D
*366 ANTENNA__086__CLK
*367 ANTENNA__086__D
*368 ANTENNA__087__CLK
*369 ANTENNA__087__D
*370 ANTENNA__088__CLK
*371 ANTENNA__088__D
*372 ANTENNA__089__CLK
*373 ANTENNA__089__D
*374 ANTENNA__090__CLK
*375 ANTENNA__090__D
*376 ANTENNA__091__CLK
*377 ANTENNA__091__D
*378 ANTENNA__092__CLK
*379 ANTENNA__092__D
*380 ANTENNA__093__CLK
*381 ANTENNA__093__D
*382 ANTENNA__094__CLK
*383 ANTENNA__094__D
*384 ANTENNA__095__CLK
*385 ANTENNA__095__D
*386 ANTENNA__096__CLK
*387 ANTENNA__097__CLK
*388 ANTENNA__098__CLK
*389 ANTENNA__099__CLK
*390 ANTENNA__100__CLK
*391 ANTENNA__101__CLK
*392 ANTENNA__102__CLK
*393 ANTENNA__103__CLK
*394 ANTENNA__104__CLK
*395 ANTENNA__105__CLK
*396 ANTENNA__106__CLK
*397 ANTENNA__107__CLK
*398 ANTENNA_clkbuf_1_0_0_wb_clk_i_A
*399 ANTENNA_clkbuf_1_1_0_wb_clk_i_A
*400 ANTENNA_clkbuf_2_0__f_wb_clk_i_A
*401 ANTENNA_clkbuf_2_1__f_wb_clk_i_A
*402 ANTENNA_clkbuf_2_2__f_wb_clk_i_A
*403 ANTENNA_clkbuf_2_3__f_wb_clk_i_A
*404 ANTENNA_fanout26_A
*405 ANTENNA_fanout27_A
*406 ANTENNA_output14_A
*407 ANTENNA_output15_A
*408 ANTENNA_output16_A
*409 ANTENNA_output17_A
*410 ANTENNA_output18_A
*411 ANTENNA_output19_A
*412 ANTENNA_output20_A
*413 ANTENNA_output21_A
*414 ANTENNA_output23_A
*415 ANTENNA_output24_A
*416 ANTENNA_output25_A
*417 ANTENNA_wire28_A
*418 FILLER_0_0_1005
*419 FILLER_0_0_1009
*420 FILLER_0_0_1021
*421 FILLER_0_0_1033
*422 FILLER_0_0_1037
*423 FILLER_0_0_1049
*424 FILLER_0_0_1057
*425 FILLER_0_0_109
*426 FILLER_0_0_113
*427 FILLER_0_0_125
*428 FILLER_0_0_137
*429 FILLER_0_0_141
*430 FILLER_0_0_15
*431 FILLER_0_0_153
*432 FILLER_0_0_165
*433 FILLER_0_0_169
*434 FILLER_0_0_181
*435 FILLER_0_0_193
*436 FILLER_0_0_197
*437 FILLER_0_0_209
*438 FILLER_0_0_221
*439 FILLER_0_0_225
*440 FILLER_0_0_237
*441 FILLER_0_0_249
*442 FILLER_0_0_253
*443 FILLER_0_0_265
*444 FILLER_0_0_27
*445 FILLER_0_0_277
*446 FILLER_0_0_281
*447 FILLER_0_0_29
*448 FILLER_0_0_293
*449 FILLER_0_0_3
*450 FILLER_0_0_305
*451 FILLER_0_0_309
*452 FILLER_0_0_321
*453 FILLER_0_0_333
*454 FILLER_0_0_337
*455 FILLER_0_0_349
*456 FILLER_0_0_361
*457 FILLER_0_0_365
*458 FILLER_0_0_377
*459 FILLER_0_0_389
*460 FILLER_0_0_393
*461 FILLER_0_0_405
*462 FILLER_0_0_41
*463 FILLER_0_0_417
*464 FILLER_0_0_421
*465 FILLER_0_0_433
*466 FILLER_0_0_445
*467 FILLER_0_0_449
*468 FILLER_0_0_461
*469 FILLER_0_0_473
*470 FILLER_0_0_477
*471 FILLER_0_0_489
*472 FILLER_0_0_501
*473 FILLER_0_0_505
*474 FILLER_0_0_517
*475 FILLER_0_0_529
*476 FILLER_0_0_53
*477 FILLER_0_0_533
*478 FILLER_0_0_545
*479 FILLER_0_0_557
*480 FILLER_0_0_561
*481 FILLER_0_0_57
*482 FILLER_0_0_573
*483 FILLER_0_0_585
*484 FILLER_0_0_589
*485 FILLER_0_0_601
*486 FILLER_0_0_613
*487 FILLER_0_0_617
*488 FILLER_0_0_629
*489 FILLER_0_0_641
*490 FILLER_0_0_645
*491 FILLER_0_0_657
*492 FILLER_0_0_669
*493 FILLER_0_0_673
*494 FILLER_0_0_685
*495 FILLER_0_0_69
*496 FILLER_0_0_697
*497 FILLER_0_0_701
*498 FILLER_0_0_713
*499 FILLER_0_0_725
*500 FILLER_0_0_729
*501 FILLER_0_0_741
*502 FILLER_0_0_753
*503 FILLER_0_0_757
*504 FILLER_0_0_769
*505 FILLER_0_0_781
*506 FILLER_0_0_785
*507 FILLER_0_0_797
*508 FILLER_0_0_809
*509 FILLER_0_0_81
*510 FILLER_0_0_813
*511 FILLER_0_0_825
*512 FILLER_0_0_837
*513 FILLER_0_0_841
*514 FILLER_0_0_85
*515 FILLER_0_0_853
*516 FILLER_0_0_865
*517 FILLER_0_0_869
*518 FILLER_0_0_881
*519 FILLER_0_0_893
*520 FILLER_0_0_897
*521 FILLER_0_0_909
*522 FILLER_0_0_921
*523 FILLER_0_0_925
*524 FILLER_0_0_937
*525 FILLER_0_0_949
*526 FILLER_0_0_953
*527 FILLER_0_0_965
*528 FILLER_0_0_97
*529 FILLER_0_0_977
*530 FILLER_0_0_981
*531 FILLER_0_0_993
*532 FILLER_0_1000_1005
*533 FILLER_0_1000_1017
*534 FILLER_0_1000_1029
*535 FILLER_0_1000_1035
*536 FILLER_0_1000_1037
*537 FILLER_0_1000_1049
*538 FILLER_0_1000_1057
*539 FILLER_0_1000_109
*540 FILLER_0_1000_121
*541 FILLER_0_1000_133
*542 FILLER_0_1000_139
*543 FILLER_0_1000_141
*544 FILLER_0_1000_15
*545 FILLER_0_1000_153
*546 FILLER_0_1000_165
*547 FILLER_0_1000_177
*548 FILLER_0_1000_189
*549 FILLER_0_1000_195
*550 FILLER_0_1000_197
*551 FILLER_0_1000_209
*552 FILLER_0_1000_221
*553 FILLER_0_1000_233
*554 FILLER_0_1000_245
*555 FILLER_0_1000_251
*556 FILLER_0_1000_253
*557 FILLER_0_1000_265
*558 FILLER_0_1000_27
*559 FILLER_0_1000_277
*560 FILLER_0_1000_289
*561 FILLER_0_1000_29
*562 FILLER_0_1000_3
*563 FILLER_0_1000_301
*564 FILLER_0_1000_307
*565 FILLER_0_1000_309
*566 FILLER_0_1000_321
*567 FILLER_0_1000_333
*568 FILLER_0_1000_345
*569 FILLER_0_1000_357
*570 FILLER_0_1000_363
*571 FILLER_0_1000_365
*572 FILLER_0_1000_377
*573 FILLER_0_1000_389
*574 FILLER_0_1000_401
*575 FILLER_0_1000_41
*576 FILLER_0_1000_413
*577 FILLER_0_1000_419
*578 FILLER_0_1000_421
*579 FILLER_0_1000_433
*580 FILLER_0_1000_445
*581 FILLER_0_1000_457
*582 FILLER_0_1000_469
*583 FILLER_0_1000_475
*584 FILLER_0_1000_477
*585 FILLER_0_1000_489
*586 FILLER_0_1000_501
*587 FILLER_0_1000_513
*588 FILLER_0_1000_525
*589 FILLER_0_1000_53
*590 FILLER_0_1000_531
*591 FILLER_0_1000_533
*592 FILLER_0_1000_545
*593 FILLER_0_1000_557
*594 FILLER_0_1000_569
*595 FILLER_0_1000_581
*596 FILLER_0_1000_587
*597 FILLER_0_1000_589
*598 FILLER_0_1000_601
*599 FILLER_0_1000_613
*600 FILLER_0_1000_625
*601 FILLER_0_1000_637
*602 FILLER_0_1000_643
*603 FILLER_0_1000_645
*604 FILLER_0_1000_65
*605 FILLER_0_1000_657
*606 FILLER_0_1000_669
*607 FILLER_0_1000_681
*608 FILLER_0_1000_693
*609 FILLER_0_1000_699
*610 FILLER_0_1000_701
*611 FILLER_0_1000_713
*612 FILLER_0_1000_725
*613 FILLER_0_1000_737
*614 FILLER_0_1000_749
*615 FILLER_0_1000_755
*616 FILLER_0_1000_757
*617 FILLER_0_1000_769
*618 FILLER_0_1000_77
*619 FILLER_0_1000_781
*620 FILLER_0_1000_793
*621 FILLER_0_1000_805
*622 FILLER_0_1000_811
*623 FILLER_0_1000_813
*624 FILLER_0_1000_825
*625 FILLER_0_1000_83
*626 FILLER_0_1000_837
*627 FILLER_0_1000_849
*628 FILLER_0_1000_85
*629 FILLER_0_1000_861
*630 FILLER_0_1000_867
*631 FILLER_0_1000_869
*632 FILLER_0_1000_881
*633 FILLER_0_1000_893
*634 FILLER_0_1000_905
*635 FILLER_0_1000_917
*636 FILLER_0_1000_923
*637 FILLER_0_1000_925
*638 FILLER_0_1000_937
*639 FILLER_0_1000_949
*640 FILLER_0_1000_961
*641 FILLER_0_1000_97
*642 FILLER_0_1000_973
*643 FILLER_0_1000_979
*644 FILLER_0_1000_981
*645 FILLER_0_1000_993
*646 FILLER_0_1001_1001
*647 FILLER_0_1001_1007
*648 FILLER_0_1001_1009
*649 FILLER_0_1001_1021
*650 FILLER_0_1001_1033
*651 FILLER_0_1001_1045
*652 FILLER_0_1001_105
*653 FILLER_0_1001_1057
*654 FILLER_0_1001_111
*655 FILLER_0_1001_113
*656 FILLER_0_1001_125
*657 FILLER_0_1001_137
*658 FILLER_0_1001_149
*659 FILLER_0_1001_15
*660 FILLER_0_1001_161
*661 FILLER_0_1001_167
*662 FILLER_0_1001_169
*663 FILLER_0_1001_181
*664 FILLER_0_1001_193
*665 FILLER_0_1001_205
*666 FILLER_0_1001_217
*667 FILLER_0_1001_223
*668 FILLER_0_1001_225
*669 FILLER_0_1001_237
*670 FILLER_0_1001_249
*671 FILLER_0_1001_261
*672 FILLER_0_1001_27
*673 FILLER_0_1001_273
*674 FILLER_0_1001_279
*675 FILLER_0_1001_281
*676 FILLER_0_1001_293
*677 FILLER_0_1001_3
*678 FILLER_0_1001_305
*679 FILLER_0_1001_317
*680 FILLER_0_1001_329
*681 FILLER_0_1001_335
*682 FILLER_0_1001_337
*683 FILLER_0_1001_349
*684 FILLER_0_1001_361
*685 FILLER_0_1001_373
*686 FILLER_0_1001_385
*687 FILLER_0_1001_39
*688 FILLER_0_1001_391
*689 FILLER_0_1001_393
*690 FILLER_0_1001_405
*691 FILLER_0_1001_417
*692 FILLER_0_1001_429
*693 FILLER_0_1001_441
*694 FILLER_0_1001_447
*695 FILLER_0_1001_449
*696 FILLER_0_1001_461
*697 FILLER_0_1001_473
*698 FILLER_0_1001_485
*699 FILLER_0_1001_497
*700 FILLER_0_1001_503
*701 FILLER_0_1001_505
*702 FILLER_0_1001_51
*703 FILLER_0_1001_517
*704 FILLER_0_1001_529
*705 FILLER_0_1001_541
*706 FILLER_0_1001_55
*707 FILLER_0_1001_553
*708 FILLER_0_1001_559
*709 FILLER_0_1001_561
*710 FILLER_0_1001_57
*711 FILLER_0_1001_573
*712 FILLER_0_1001_585
*713 FILLER_0_1001_597
*714 FILLER_0_1001_609
*715 FILLER_0_1001_615
*716 FILLER_0_1001_617
*717 FILLER_0_1001_629
*718 FILLER_0_1001_641
*719 FILLER_0_1001_653
*720 FILLER_0_1001_665
*721 FILLER_0_1001_671
*722 FILLER_0_1001_673
*723 FILLER_0_1001_685
*724 FILLER_0_1001_69
*725 FILLER_0_1001_697
*726 FILLER_0_1001_709
*727 FILLER_0_1001_721
*728 FILLER_0_1001_727
*729 FILLER_0_1001_729
*730 FILLER_0_1001_741
*731 FILLER_0_1001_753
*732 FILLER_0_1001_765
*733 FILLER_0_1001_777
*734 FILLER_0_1001_783
*735 FILLER_0_1001_785
*736 FILLER_0_1001_797
*737 FILLER_0_1001_809
*738 FILLER_0_1001_81
*739 FILLER_0_1001_821
*740 FILLER_0_1001_833
*741 FILLER_0_1001_839
*742 FILLER_0_1001_841
*743 FILLER_0_1001_853
*744 FILLER_0_1001_865
*745 FILLER_0_1001_877
*746 FILLER_0_1001_889
*747 FILLER_0_1001_895
*748 FILLER_0_1001_897
*749 FILLER_0_1001_909
*750 FILLER_0_1001_921
*751 FILLER_0_1001_93
*752 FILLER_0_1001_933
*753 FILLER_0_1001_945
*754 FILLER_0_1001_951
*755 FILLER_0_1001_953
*756 FILLER_0_1001_965
*757 FILLER_0_1001_977
*758 FILLER_0_1001_989
*759 FILLER_0_1002_1005
*760 FILLER_0_1002_1017
*761 FILLER_0_1002_1029
*762 FILLER_0_1002_1035
*763 FILLER_0_1002_1037
*764 FILLER_0_1002_1049
*765 FILLER_0_1002_1057
*766 FILLER_0_1002_109
*767 FILLER_0_1002_121
*768 FILLER_0_1002_133
*769 FILLER_0_1002_139
*770 FILLER_0_1002_141
*771 FILLER_0_1002_15
*772 FILLER_0_1002_153
*773 FILLER_0_1002_165
*774 FILLER_0_1002_177
*775 FILLER_0_1002_189
*776 FILLER_0_1002_195
*777 FILLER_0_1002_197
*778 FILLER_0_1002_209
*779 FILLER_0_1002_221
*780 FILLER_0_1002_233
*781 FILLER_0_1002_245
*782 FILLER_0_1002_251
*783 FILLER_0_1002_253
*784 FILLER_0_1002_265
*785 FILLER_0_1002_27
*786 FILLER_0_1002_277
*787 FILLER_0_1002_289
*788 FILLER_0_1002_29
*789 FILLER_0_1002_3
*790 FILLER_0_1002_301
*791 FILLER_0_1002_307
*792 FILLER_0_1002_309
*793 FILLER_0_1002_321
*794 FILLER_0_1002_333
*795 FILLER_0_1002_345
*796 FILLER_0_1002_357
*797 FILLER_0_1002_363
*798 FILLER_0_1002_365
*799 FILLER_0_1002_377
*800 FILLER_0_1002_389
*801 FILLER_0_1002_401
*802 FILLER_0_1002_41
*803 FILLER_0_1002_413
*804 FILLER_0_1002_419
*805 FILLER_0_1002_421
*806 FILLER_0_1002_433
*807 FILLER_0_1002_445
*808 FILLER_0_1002_457
*809 FILLER_0_1002_469
*810 FILLER_0_1002_475
*811 FILLER_0_1002_477
*812 FILLER_0_1002_489
*813 FILLER_0_1002_501
*814 FILLER_0_1002_513
*815 FILLER_0_1002_525
*816 FILLER_0_1002_53
*817 FILLER_0_1002_531
*818 FILLER_0_1002_533
*819 FILLER_0_1002_545
*820 FILLER_0_1002_557
*821 FILLER_0_1002_569
*822 FILLER_0_1002_581
*823 FILLER_0_1002_587
*824 FILLER_0_1002_589
*825 FILLER_0_1002_601
*826 FILLER_0_1002_613
*827 FILLER_0_1002_625
*828 FILLER_0_1002_637
*829 FILLER_0_1002_643
*830 FILLER_0_1002_645
*831 FILLER_0_1002_65
*832 FILLER_0_1002_657
*833 FILLER_0_1002_669
*834 FILLER_0_1002_681
*835 FILLER_0_1002_693
*836 FILLER_0_1002_699
*837 FILLER_0_1002_701
*838 FILLER_0_1002_713
*839 FILLER_0_1002_725
*840 FILLER_0_1002_737
*841 FILLER_0_1002_749
*842 FILLER_0_1002_755
*843 FILLER_0_1002_757
*844 FILLER_0_1002_769
*845 FILLER_0_1002_77
*846 FILLER_0_1002_781
*847 FILLER_0_1002_793
*848 FILLER_0_1002_805
*849 FILLER_0_1002_811
*850 FILLER_0_1002_813
*851 FILLER_0_1002_825
*852 FILLER_0_1002_83
*853 FILLER_0_1002_837
*854 FILLER_0_1002_849
*855 FILLER_0_1002_85
*856 FILLER_0_1002_861
*857 FILLER_0_1002_867
*858 FILLER_0_1002_869
*859 FILLER_0_1002_881
*860 FILLER_0_1002_893
*861 FILLER_0_1002_905
*862 FILLER_0_1002_917
*863 FILLER_0_1002_923
*864 FILLER_0_1002_925
*865 FILLER_0_1002_937
*866 FILLER_0_1002_949
*867 FILLER_0_1002_961
*868 FILLER_0_1002_97
*869 FILLER_0_1002_973
*870 FILLER_0_1002_979
*871 FILLER_0_1002_981
*872 FILLER_0_1002_993
*873 FILLER_0_1003_1001
*874 FILLER_0_1003_1007
*875 FILLER_0_1003_1009
*876 FILLER_0_1003_1021
*877 FILLER_0_1003_1033
*878 FILLER_0_1003_1045
*879 FILLER_0_1003_105
*880 FILLER_0_1003_1057
*881 FILLER_0_1003_111
*882 FILLER_0_1003_113
*883 FILLER_0_1003_125
*884 FILLER_0_1003_137
*885 FILLER_0_1003_149
*886 FILLER_0_1003_15
*887 FILLER_0_1003_161
*888 FILLER_0_1003_167
*889 FILLER_0_1003_169
*890 FILLER_0_1003_181
*891 FILLER_0_1003_193
*892 FILLER_0_1003_205
*893 FILLER_0_1003_217
*894 FILLER_0_1003_223
*895 FILLER_0_1003_225
*896 FILLER_0_1003_237
*897 FILLER_0_1003_249
*898 FILLER_0_1003_261
*899 FILLER_0_1003_27
*900 FILLER_0_1003_273
*901 FILLER_0_1003_279
*902 FILLER_0_1003_281
*903 FILLER_0_1003_293
*904 FILLER_0_1003_3
*905 FILLER_0_1003_305
*906 FILLER_0_1003_317
*907 FILLER_0_1003_329
*908 FILLER_0_1003_335
*909 FILLER_0_1003_337
*910 FILLER_0_1003_349
*911 FILLER_0_1003_361
*912 FILLER_0_1003_373
*913 FILLER_0_1003_385
*914 FILLER_0_1003_39
*915 FILLER_0_1003_391
*916 FILLER_0_1003_393
*917 FILLER_0_1003_405
*918 FILLER_0_1003_417
*919 FILLER_0_1003_429
*920 FILLER_0_1003_441
*921 FILLER_0_1003_447
*922 FILLER_0_1003_449
*923 FILLER_0_1003_461
*924 FILLER_0_1003_473
*925 FILLER_0_1003_485
*926 FILLER_0_1003_497
*927 FILLER_0_1003_503
*928 FILLER_0_1003_505
*929 FILLER_0_1003_51
*930 FILLER_0_1003_517
*931 FILLER_0_1003_529
*932 FILLER_0_1003_541
*933 FILLER_0_1003_55
*934 FILLER_0_1003_553
*935 FILLER_0_1003_559
*936 FILLER_0_1003_561
*937 FILLER_0_1003_57
*938 FILLER_0_1003_573
*939 FILLER_0_1003_585
*940 FILLER_0_1003_597
*941 FILLER_0_1003_609
*942 FILLER_0_1003_615
*943 FILLER_0_1003_617
*944 FILLER_0_1003_629
*945 FILLER_0_1003_641
*946 FILLER_0_1003_653
*947 FILLER_0_1003_665
*948 FILLER_0_1003_671
*949 FILLER_0_1003_673
*950 FILLER_0_1003_685
*951 FILLER_0_1003_69
*952 FILLER_0_1003_697
*953 FILLER_0_1003_709
*954 FILLER_0_1003_721
*955 FILLER_0_1003_727
*956 FILLER_0_1003_729
*957 FILLER_0_1003_741
*958 FILLER_0_1003_753
*959 FILLER_0_1003_765
*960 FILLER_0_1003_777
*961 FILLER_0_1003_783
*962 FILLER_0_1003_785
*963 FILLER_0_1003_797
*964 FILLER_0_1003_809
*965 FILLER_0_1003_81
*966 FILLER_0_1003_821
*967 FILLER_0_1003_833
*968 FILLER_0_1003_839
*969 FILLER_0_1003_841
*970 FILLER_0_1003_853
*971 FILLER_0_1003_865
*972 FILLER_0_1003_877
*973 FILLER_0_1003_889
*974 FILLER_0_1003_895
*975 FILLER_0_1003_897
*976 FILLER_0_1003_909
*977 FILLER_0_1003_921
*978 FILLER_0_1003_93
*979 FILLER_0_1003_933
*980 FILLER_0_1003_945
*981 FILLER_0_1003_951
*982 FILLER_0_1003_953
*983 FILLER_0_1003_965
*984 FILLER_0_1003_977
*985 FILLER_0_1003_989
*986 FILLER_0_1004_1005
*987 FILLER_0_1004_1017
*988 FILLER_0_1004_1029
*989 FILLER_0_1004_1035
*990 FILLER_0_1004_1037
*991 FILLER_0_1004_1049
*992 FILLER_0_1004_1057
*993 FILLER_0_1004_109
*994 FILLER_0_1004_121
*995 FILLER_0_1004_133
*996 FILLER_0_1004_139
*997 FILLER_0_1004_141
*998 FILLER_0_1004_15
*999 FILLER_0_1004_153
*1000 FILLER_0_1004_165
*1001 FILLER_0_1004_177
*1002 FILLER_0_1004_189
*1003 FILLER_0_1004_195
*1004 FILLER_0_1004_197
*1005 FILLER_0_1004_209
*1006 FILLER_0_1004_221
*1007 FILLER_0_1004_233
*1008 FILLER_0_1004_245
*1009 FILLER_0_1004_251
*1010 FILLER_0_1004_253
*1011 FILLER_0_1004_265
*1012 FILLER_0_1004_27
*1013 FILLER_0_1004_277
*1014 FILLER_0_1004_289
*1015 FILLER_0_1004_29
*1016 FILLER_0_1004_3
*1017 FILLER_0_1004_301
*1018 FILLER_0_1004_307
*1019 FILLER_0_1004_309
*1020 FILLER_0_1004_321
*1021 FILLER_0_1004_333
*1022 FILLER_0_1004_345
*1023 FILLER_0_1004_357
*1024 FILLER_0_1004_363
*1025 FILLER_0_1004_365
*1026 FILLER_0_1004_377
*1027 FILLER_0_1004_389
*1028 FILLER_0_1004_401
*1029 FILLER_0_1004_41
*1030 FILLER_0_1004_413
*1031 FILLER_0_1004_419
*1032 FILLER_0_1004_421
*1033 FILLER_0_1004_433
*1034 FILLER_0_1004_445
*1035 FILLER_0_1004_457
*1036 FILLER_0_1004_469
*1037 FILLER_0_1004_475
*1038 FILLER_0_1004_477
*1039 FILLER_0_1004_489
*1040 FILLER_0_1004_501
*1041 FILLER_0_1004_513
*1042 FILLER_0_1004_525
*1043 FILLER_0_1004_53
*1044 FILLER_0_1004_531
*1045 FILLER_0_1004_533
*1046 FILLER_0_1004_545
*1047 FILLER_0_1004_557
*1048 FILLER_0_1004_569
*1049 FILLER_0_1004_581
*1050 FILLER_0_1004_587
*1051 FILLER_0_1004_589
*1052 FILLER_0_1004_601
*1053 FILLER_0_1004_613
*1054 FILLER_0_1004_625
*1055 FILLER_0_1004_637
*1056 FILLER_0_1004_643
*1057 FILLER_0_1004_645
*1058 FILLER_0_1004_65
*1059 FILLER_0_1004_657
*1060 FILLER_0_1004_669
*1061 FILLER_0_1004_681
*1062 FILLER_0_1004_693
*1063 FILLER_0_1004_699
*1064 FILLER_0_1004_701
*1065 FILLER_0_1004_713
*1066 FILLER_0_1004_725
*1067 FILLER_0_1004_737
*1068 FILLER_0_1004_749
*1069 FILLER_0_1004_755
*1070 FILLER_0_1004_757
*1071 FILLER_0_1004_769
*1072 FILLER_0_1004_77
*1073 FILLER_0_1004_781
*1074 FILLER_0_1004_793
*1075 FILLER_0_1004_805
*1076 FILLER_0_1004_811
*1077 FILLER_0_1004_813
*1078 FILLER_0_1004_825
*1079 FILLER_0_1004_83
*1080 FILLER_0_1004_837
*1081 FILLER_0_1004_849
*1082 FILLER_0_1004_85
*1083 FILLER_0_1004_861
*1084 FILLER_0_1004_867
*1085 FILLER_0_1004_869
*1086 FILLER_0_1004_881
*1087 FILLER_0_1004_893
*1088 FILLER_0_1004_905
*1089 FILLER_0_1004_917
*1090 FILLER_0_1004_923
*1091 FILLER_0_1004_925
*1092 FILLER_0_1004_937
*1093 FILLER_0_1004_949
*1094 FILLER_0_1004_961
*1095 FILLER_0_1004_97
*1096 FILLER_0_1004_973
*1097 FILLER_0_1004_979
*1098 FILLER_0_1004_981
*1099 FILLER_0_1004_993
*1100 FILLER_0_1005_1001
*1101 FILLER_0_1005_1007
*1102 FILLER_0_1005_1009
*1103 FILLER_0_1005_1021
*1104 FILLER_0_1005_1033
*1105 FILLER_0_1005_1045
*1106 FILLER_0_1005_105
*1107 FILLER_0_1005_1057
*1108 FILLER_0_1005_111
*1109 FILLER_0_1005_113
*1110 FILLER_0_1005_125
*1111 FILLER_0_1005_137
*1112 FILLER_0_1005_149
*1113 FILLER_0_1005_15
*1114 FILLER_0_1005_161
*1115 FILLER_0_1005_167
*1116 FILLER_0_1005_169
*1117 FILLER_0_1005_181
*1118 FILLER_0_1005_193
*1119 FILLER_0_1005_205
*1120 FILLER_0_1005_217
*1121 FILLER_0_1005_223
*1122 FILLER_0_1005_225
*1123 FILLER_0_1005_237
*1124 FILLER_0_1005_249
*1125 FILLER_0_1005_261
*1126 FILLER_0_1005_27
*1127 FILLER_0_1005_273
*1128 FILLER_0_1005_279
*1129 FILLER_0_1005_281
*1130 FILLER_0_1005_293
*1131 FILLER_0_1005_3
*1132 FILLER_0_1005_305
*1133 FILLER_0_1005_317
*1134 FILLER_0_1005_329
*1135 FILLER_0_1005_335
*1136 FILLER_0_1005_337
*1137 FILLER_0_1005_349
*1138 FILLER_0_1005_361
*1139 FILLER_0_1005_373
*1140 FILLER_0_1005_385
*1141 FILLER_0_1005_39
*1142 FILLER_0_1005_391
*1143 FILLER_0_1005_393
*1144 FILLER_0_1005_405
*1145 FILLER_0_1005_417
*1146 FILLER_0_1005_429
*1147 FILLER_0_1005_441
*1148 FILLER_0_1005_447
*1149 FILLER_0_1005_449
*1150 FILLER_0_1005_461
*1151 FILLER_0_1005_473
*1152 FILLER_0_1005_485
*1153 FILLER_0_1005_497
*1154 FILLER_0_1005_503
*1155 FILLER_0_1005_505
*1156 FILLER_0_1005_51
*1157 FILLER_0_1005_517
*1158 FILLER_0_1005_529
*1159 FILLER_0_1005_541
*1160 FILLER_0_1005_55
*1161 FILLER_0_1005_553
*1162 FILLER_0_1005_559
*1163 FILLER_0_1005_561
*1164 FILLER_0_1005_57
*1165 FILLER_0_1005_573
*1166 FILLER_0_1005_585
*1167 FILLER_0_1005_597
*1168 FILLER_0_1005_609
*1169 FILLER_0_1005_615
*1170 FILLER_0_1005_617
*1171 FILLER_0_1005_629
*1172 FILLER_0_1005_641
*1173 FILLER_0_1005_653
*1174 FILLER_0_1005_665
*1175 FILLER_0_1005_671
*1176 FILLER_0_1005_673
*1177 FILLER_0_1005_685
*1178 FILLER_0_1005_69
*1179 FILLER_0_1005_697
*1180 FILLER_0_1005_709
*1181 FILLER_0_1005_721
*1182 FILLER_0_1005_727
*1183 FILLER_0_1005_729
*1184 FILLER_0_1005_741
*1185 FILLER_0_1005_753
*1186 FILLER_0_1005_765
*1187 FILLER_0_1005_777
*1188 FILLER_0_1005_783
*1189 FILLER_0_1005_785
*1190 FILLER_0_1005_797
*1191 FILLER_0_1005_809
*1192 FILLER_0_1005_81
*1193 FILLER_0_1005_821
*1194 FILLER_0_1005_833
*1195 FILLER_0_1005_839
*1196 FILLER_0_1005_841
*1197 FILLER_0_1005_853
*1198 FILLER_0_1005_865
*1199 FILLER_0_1005_877
*1200 FILLER_0_1005_889
*1201 FILLER_0_1005_895
*1202 FILLER_0_1005_897
*1203 FILLER_0_1005_909
*1204 FILLER_0_1005_921
*1205 FILLER_0_1005_93
*1206 FILLER_0_1005_933
*1207 FILLER_0_1005_945
*1208 FILLER_0_1005_951
*1209 FILLER_0_1005_953
*1210 FILLER_0_1005_965
*1211 FILLER_0_1005_977
*1212 FILLER_0_1005_989
*1213 FILLER_0_1006_1005
*1214 FILLER_0_1006_1017
*1215 FILLER_0_1006_1029
*1216 FILLER_0_1006_1035
*1217 FILLER_0_1006_1037
*1218 FILLER_0_1006_1049
*1219 FILLER_0_1006_1057
*1220 FILLER_0_1006_109
*1221 FILLER_0_1006_121
*1222 FILLER_0_1006_133
*1223 FILLER_0_1006_139
*1224 FILLER_0_1006_141
*1225 FILLER_0_1006_15
*1226 FILLER_0_1006_153
*1227 FILLER_0_1006_165
*1228 FILLER_0_1006_177
*1229 FILLER_0_1006_189
*1230 FILLER_0_1006_195
*1231 FILLER_0_1006_197
*1232 FILLER_0_1006_209
*1233 FILLER_0_1006_221
*1234 FILLER_0_1006_233
*1235 FILLER_0_1006_245
*1236 FILLER_0_1006_251
*1237 FILLER_0_1006_253
*1238 FILLER_0_1006_265
*1239 FILLER_0_1006_27
*1240 FILLER_0_1006_277
*1241 FILLER_0_1006_289
*1242 FILLER_0_1006_29
*1243 FILLER_0_1006_3
*1244 FILLER_0_1006_301
*1245 FILLER_0_1006_307
*1246 FILLER_0_1006_309
*1247 FILLER_0_1006_321
*1248 FILLER_0_1006_333
*1249 FILLER_0_1006_345
*1250 FILLER_0_1006_357
*1251 FILLER_0_1006_363
*1252 FILLER_0_1006_365
*1253 FILLER_0_1006_377
*1254 FILLER_0_1006_389
*1255 FILLER_0_1006_401
*1256 FILLER_0_1006_41
*1257 FILLER_0_1006_413
*1258 FILLER_0_1006_419
*1259 FILLER_0_1006_421
*1260 FILLER_0_1006_433
*1261 FILLER_0_1006_445
*1262 FILLER_0_1006_457
*1263 FILLER_0_1006_469
*1264 FILLER_0_1006_475
*1265 FILLER_0_1006_477
*1266 FILLER_0_1006_489
*1267 FILLER_0_1006_501
*1268 FILLER_0_1006_513
*1269 FILLER_0_1006_525
*1270 FILLER_0_1006_53
*1271 FILLER_0_1006_531
*1272 FILLER_0_1006_533
*1273 FILLER_0_1006_545
*1274 FILLER_0_1006_557
*1275 FILLER_0_1006_569
*1276 FILLER_0_1006_581
*1277 FILLER_0_1006_587
*1278 FILLER_0_1006_589
*1279 FILLER_0_1006_601
*1280 FILLER_0_1006_613
*1281 FILLER_0_1006_625
*1282 FILLER_0_1006_637
*1283 FILLER_0_1006_643
*1284 FILLER_0_1006_645
*1285 FILLER_0_1006_65
*1286 FILLER_0_1006_657
*1287 FILLER_0_1006_669
*1288 FILLER_0_1006_681
*1289 FILLER_0_1006_693
*1290 FILLER_0_1006_699
*1291 FILLER_0_1006_701
*1292 FILLER_0_1006_713
*1293 FILLER_0_1006_725
*1294 FILLER_0_1006_737
*1295 FILLER_0_1006_749
*1296 FILLER_0_1006_755
*1297 FILLER_0_1006_757
*1298 FILLER_0_1006_769
*1299 FILLER_0_1006_77
*1300 FILLER_0_1006_781
*1301 FILLER_0_1006_793
*1302 FILLER_0_1006_805
*1303 FILLER_0_1006_811
*1304 FILLER_0_1006_813
*1305 FILLER_0_1006_825
*1306 FILLER_0_1006_83
*1307 FILLER_0_1006_837
*1308 FILLER_0_1006_849
*1309 FILLER_0_1006_85
*1310 FILLER_0_1006_861
*1311 FILLER_0_1006_867
*1312 FILLER_0_1006_869
*1313 FILLER_0_1006_881
*1314 FILLER_0_1006_893
*1315 FILLER_0_1006_905
*1316 FILLER_0_1006_917
*1317 FILLER_0_1006_923
*1318 FILLER_0_1006_925
*1319 FILLER_0_1006_937
*1320 FILLER_0_1006_949
*1321 FILLER_0_1006_961
*1322 FILLER_0_1006_97
*1323 FILLER_0_1006_973
*1324 FILLER_0_1006_979
*1325 FILLER_0_1006_981
*1326 FILLER_0_1006_993
*1327 FILLER_0_1007_1001
*1328 FILLER_0_1007_1007
*1329 FILLER_0_1007_1009
*1330 FILLER_0_1007_1021
*1331 FILLER_0_1007_1033
*1332 FILLER_0_1007_1045
*1333 FILLER_0_1007_105
*1334 FILLER_0_1007_1057
*1335 FILLER_0_1007_111
*1336 FILLER_0_1007_113
*1337 FILLER_0_1007_125
*1338 FILLER_0_1007_137
*1339 FILLER_0_1007_149
*1340 FILLER_0_1007_15
*1341 FILLER_0_1007_161
*1342 FILLER_0_1007_167
*1343 FILLER_0_1007_169
*1344 FILLER_0_1007_181
*1345 FILLER_0_1007_193
*1346 FILLER_0_1007_205
*1347 FILLER_0_1007_217
*1348 FILLER_0_1007_223
*1349 FILLER_0_1007_225
*1350 FILLER_0_1007_237
*1351 FILLER_0_1007_249
*1352 FILLER_0_1007_261
*1353 FILLER_0_1007_27
*1354 FILLER_0_1007_273
*1355 FILLER_0_1007_279
*1356 FILLER_0_1007_281
*1357 FILLER_0_1007_293
*1358 FILLER_0_1007_3
*1359 FILLER_0_1007_305
*1360 FILLER_0_1007_317
*1361 FILLER_0_1007_329
*1362 FILLER_0_1007_335
*1363 FILLER_0_1007_337
*1364 FILLER_0_1007_349
*1365 FILLER_0_1007_361
*1366 FILLER_0_1007_373
*1367 FILLER_0_1007_385
*1368 FILLER_0_1007_39
*1369 FILLER_0_1007_391
*1370 FILLER_0_1007_393
*1371 FILLER_0_1007_405
*1372 FILLER_0_1007_417
*1373 FILLER_0_1007_429
*1374 FILLER_0_1007_441
*1375 FILLER_0_1007_447
*1376 FILLER_0_1007_449
*1377 FILLER_0_1007_461
*1378 FILLER_0_1007_473
*1379 FILLER_0_1007_485
*1380 FILLER_0_1007_497
*1381 FILLER_0_1007_503
*1382 FILLER_0_1007_505
*1383 FILLER_0_1007_51
*1384 FILLER_0_1007_517
*1385 FILLER_0_1007_529
*1386 FILLER_0_1007_541
*1387 FILLER_0_1007_55
*1388 FILLER_0_1007_553
*1389 FILLER_0_1007_559
*1390 FILLER_0_1007_561
*1391 FILLER_0_1007_57