*SPEF "ieee 1481-1999"
*DESIGN "user_proj_solar"
*DATE "11:11:11 Fri 11 11, 1111"
*VENDOR "OpenRCX"
*PROGRAM "Parallel Extraction"
*VERSION "1.0"
*DESIGN_FLOW "NAME_SCOPE LOCAL" "PIN_CAP NONE"
*DIVIDER /
*DELIMITER :
*BUS_DELIMITER []
*T_UNIT 1 NS
*C_UNIT 1 PF
*R_UNIT 1 OHM
*L_UNIT 1 HENRY

*NAME_MAP
*1 io_in[0]
*2 io_in[10]
*3 io_in[11]
*4 io_in[12]
*5 io_in[13]
*6 io_in[14]
*7 io_in[15]
*8 io_in[16]
*9 io_in[17]
*10 io_in[18]
*11 io_in[19]
*12 io_in[1]
*13 io_in[20]
*14 io_in[21]
*15 io_in[22]
*16 io_in[23]
*17 io_in[2]
*18 io_in[3]
*19 io_in[4]
*20 io_in[5]
*21 io_in[6]
*22 io_in[7]
*23 io_in[8]
*24 io_in[9]
*25 net30
*26 net39
*27 net40
*28 net31
*29 net32
*30 net33
*31 net34
*32 net35
*33 net36
*34 net37
*35 net38
*36 io_oeb[9]
*37 io_out[0]
*38 io_out[10]
*39 io_out[11]
*40 io_out[1]
*41 io_out[2]
*42 io_out[3]
*43 io_out[4]
*44 io_out[5]
*45 io_out[6]
*46 io_out[7]
*47 io_out[8]
*48 io_out[9]
*51 wb_clk_i
*52 wb_rst_i
*53 _000_
*54 _001_
*55 _002_
*56 _003_
*57 _004_
*58 _005_
*59 _006_
*60 _007_
*61 _008_
*62 _009_
*63 _010_
*64 _011_
*65 _012_
*66 _013_
*67 _014_
*68 _015_
*69 _016_
*70 _017_
*71 _018_
*72 _019_
*73 _020_
*74 _021_
*75 _022_
*76 _023_
*77 _024_
*78 _025_
*79 _026_
*80 _027_
*81 _028_
*82 _029_
*83 _030_
*84 _031_
*85 _032_
*86 _033_
*87 _034_
*88 _035_
*89 clknet_0_wb_clk_i
*90 clknet_1_0_0_wb_clk_i
*91 clknet_1_1_0_wb_clk_i
*92 clknet_2_0_0_wb_clk_i
*93 clknet_2_1_0_wb_clk_i
*94 clknet_2_2_0_wb_clk_i
*95 clknet_2_3_0_wb_clk_i
*96 display_mux\.voltage_display\[0\]
*97 display_mux\.voltage_display\[10\]
*98 display_mux\.voltage_display\[11\]
*99 display_mux\.voltage_display\[1\]
*100 display_mux\.voltage_display\[2\]
*101 display_mux\.voltage_display\[3\]
*102 display_mux\.voltage_display\[4\]
*103 display_mux\.voltage_display\[5\]
*104 display_mux\.voltage_display\[6\]
*105 display_mux\.voltage_display\[7\]
*106 display_mux\.voltage_display\[8\]
*107 display_mux\.voltage_display\[9\]
*108 net1
*109 net10
*110 net11
*111 net12
*112 net13
*113 net14
*114 net15
*115 net16
*116 net17
*117 net18
*118 net19
*119 net2
*120 net20
*121 net21
*122 net22
*123 net23
*124 net24
*125 net25
*126 net26
*127 net27
*128 net28
*129 net29
*130 net3
*131 net4
*132 net41
*133 net42
*134 net43
*135 net44
*136 net45
*137 net46
*138 net47
*139 net48
*140 net49
*141 net5
*142 net50
*143 net51
*144 net52
*145 net53
*146 net54
*147 net55
*148 net56
*149 net57
*150 net58
*151 net59
*152 net6
*153 net60
*154 net61
*155 net62
*156 net63
*157 net64
*158 net65
*159 net66
*160 net67
*161 net68
*162 net69
*163 net7
*164 net70
*165 net71
*166 net72
*167 net73
*168 net74
*169 net75
*170 net76
*171 net77
*172 net78
*173 net79
*174 net8
*175 net80
*176 net81
*177 net82
*178 net83
*179 net84
*180 net85
*181 net86
*182 net87
*183 net88
*184 net9
*185 solar_monitor\.adc_module\.voltage_out\[0\]
*186 solar_monitor\.adc_module\.voltage_out\[10\]
*187 solar_monitor\.adc_module\.voltage_out\[11\]
*188 solar_monitor\.adc_module\.voltage_out\[1\]
*189 solar_monitor\.adc_module\.voltage_out\[2\]
*190 solar_monitor\.adc_module\.voltage_out\[3\]
*191 solar_monitor\.adc_module\.voltage_out\[4\]
*192 solar_monitor\.adc_module\.voltage_out\[5\]
*193 solar_monitor\.adc_module\.voltage_out\[6\]
*194 solar_monitor\.adc_module\.voltage_out\[7\]
*195 solar_monitor\.adc_module\.voltage_out\[8\]
*196 solar_monitor\.adc_module\.voltage_out\[9\]
*197 ANTENNA_1
*198 ANTENNA__036__A
*199 ANTENNA__037__A
*200 ANTENNA__038__A
*201 ANTENNA__039__A
*202 ANTENNA__040__A
*203 ANTENNA__041__A
*204 ANTENNA__042__A
*205 ANTENNA__043__A
*206 ANTENNA__044__A
*207 ANTENNA__045__A
*208 ANTENNA__046__A
*209 ANTENNA__047__A
*210 ANTENNA__048__A
*211 ANTENNA__049__A
*212 ANTENNA__050__A
*213 ANTENNA__051__A
*214 ANTENNA__052__A
*215 ANTENNA__053__A
*216 ANTENNA__054__A
*217 ANTENNA__055__A
*218 ANTENNA__056__A
*219 ANTENNA__057__A
*220 ANTENNA__058__A
*221 ANTENNA__059__A
*222 ANTENNA__060__A
*223 ANTENNA__061__A
*224 ANTENNA__062__A
*225 ANTENNA__063__A
*226 ANTENNA__064__A
*227 ANTENNA__065__A
*228 ANTENNA__066__A
*229 ANTENNA__067__A
*230 ANTENNA__068__A
*231 ANTENNA__069__A
*232 ANTENNA__070__A
*233 ANTENNA__071__A
*234 ANTENNA__072__CLK
*235 ANTENNA__073__CLK
*236 ANTENNA__074__CLK
*237 ANTENNA__075__CLK
*238 ANTENNA__076__CLK
*239 ANTENNA__077__CLK
*240 ANTENNA__078__CLK
*241 ANTENNA__079__CLK
*242 ANTENNA__080__CLK
*243 ANTENNA__081__CLK
*244 ANTENNA__082__CLK
*245 ANTENNA__083__CLK
*246 ANTENNA__084__CLK
*247 ANTENNA__085__CLK
*248 ANTENNA__086__CLK
*249 ANTENNA__086__D
*250 ANTENNA__087__CLK
*251 ANTENNA__088__CLK
*252 ANTENNA__089__CLK
*253 ANTENNA__090__CLK
*254 ANTENNA__091__CLK
*255 ANTENNA__091__D
*256 ANTENNA__092__CLK
*257 ANTENNA__092__D
*258 ANTENNA__093__CLK
*259 ANTENNA__093__D
*260 ANTENNA__094__CLK
*261 ANTENNA__094__D
*262 ANTENNA__095__CLK
*263 ANTENNA__096__CLK
*264 ANTENNA__097__CLK
*265 ANTENNA__098__CLK
*266 ANTENNA__099__CLK
*267 ANTENNA__100__CLK
*268 ANTENNA__101__CLK
*269 ANTENNA__102__CLK
*270 ANTENNA__103__CLK
*271 ANTENNA__104__CLK
*272 ANTENNA__105__CLK
*273 ANTENNA__106__CLK
*274 ANTENNA__107__CLK
*275 ANTENNA__119__A
*276 ANTENNA_clkbuf_1_0_0_wb_clk_i_A
*277 ANTENNA_clkbuf_1_1_0_wb_clk_i_A
*278 ANTENNA_clkbuf_2_0_0_wb_clk_i_A
*279 ANTENNA_clkbuf_2_1_0_wb_clk_i_A
*280 ANTENNA_clkbuf_2_2_0_wb_clk_i_A
*281 ANTENNA_clkbuf_2_3_0_wb_clk_i_A
*282 ANTENNA_fanout27_A
*283 ANTENNA_fanout28_A
*284 ANTENNA_output17_A
*285 ANTENNA_output23_A
*286 ANTENNA_output24_A
*287 ANTENNA_wire29_A
*288 FILLER_0_0_1005
*289 FILLER_0_0_1009
*290 FILLER_0_0_1021
*291 FILLER_0_0_1033
*292 FILLER_0_0_1037
*293 FILLER_0_0_1049
*294 FILLER_0_0_1057
*295 FILLER_0_0_109
*296 FILLER_0_0_113
*297 FILLER_0_0_125
*298 FILLER_0_0_137
*299 FILLER_0_0_141
*300 FILLER_0_0_15
*301 FILLER_0_0_153
*302 FILLER_0_0_165
*303 FILLER_0_0_169
*304 FILLER_0_0_181
*305 FILLER_0_0_193
*306 FILLER_0_0_197
*307 FILLER_0_0_209
*308 FILLER_0_0_221
*309 FILLER_0_0_225
*310 FILLER_0_0_237
*311 FILLER_0_0_249
*312 FILLER_0_0_253
*313 FILLER_0_0_265
*314 FILLER_0_0_27
*315 FILLER_0_0_277
*316 FILLER_0_0_281
*317 FILLER_0_0_29
*318 FILLER_0_0_293
*319 FILLER_0_0_3
*320 FILLER_0_0_305
*321 FILLER_0_0_309
*322 FILLER_0_0_321
*323 FILLER_0_0_333
*324 FILLER_0_0_337
*325 FILLER_0_0_349
*326 FILLER_0_0_361
*327 FILLER_0_0_365
*328 FILLER_0_0_377
*329 FILLER_0_0_389
*330 FILLER_0_0_393
*331 FILLER_0_0_405
*332 FILLER_0_0_41
*333 FILLER_0_0_417
*334 FILLER_0_0_421
*335 FILLER_0_0_433
*336 FILLER_0_0_445
*337 FILLER_0_0_449
*338 FILLER_0_0_461
*339 FILLER_0_0_473
*340 FILLER_0_0_477
*341 FILLER_0_0_489
*342 FILLER_0_0_501
*343 FILLER_0_0_505
*344 FILLER_0_0_517
*345 FILLER_0_0_529
*346 FILLER_0_0_53
*347 FILLER_0_0_533
*348 FILLER_0_0_545
*349 FILLER_0_0_557
*350 FILLER_0_0_561
*351 FILLER_0_0_57
*352 FILLER_0_0_573
*353 FILLER_0_0_585
*354 FILLER_0_0_589
*355 FILLER_0_0_601
*356 FILLER_0_0_613
*357 FILLER_0_0_617
*358 FILLER_0_0_629
*359 FILLER_0_0_641
*360 FILLER_0_0_645
*361 FILLER_0_0_657
*362 FILLER_0_0_669
*363 FILLER_0_0_673
*364 FILLER_0_0_685
*365 FILLER_0_0_69
*366 FILLER_0_0_697
*367 FILLER_0_0_701
*368 FILLER_0_0_713
*369 FILLER_0_0_725
*370 FILLER_0_0_729
*371 FILLER_0_0_741
*372 FILLER_0_0_753
*373 FILLER_0_0_757
*374 FILLER_0_0_769
*375 FILLER_0_0_781
*376 FILLER_0_0_785
*377 FILLER_0_0_797
*378 FILLER_0_0_809
*379 FILLER_0_0_81
*380 FILLER_0_0_813
*381 FILLER_0_0_825
*382 FILLER_0_0_837
*383 FILLER_0_0_841
*384 FILLER_0_0_85
*385 FILLER_0_0_853
*386 FILLER_0_0_865
*387 FILLER_0_0_869
*388 FILLER_0_0_881
*389 FILLER_0_0_893
*390 FILLER_0_0_897
*391 FILLER_0_0_909
*392 FILLER_0_0_921
*393 FILLER_0_0_925
*394 FILLER_0_0_937
*395 FILLER_0_0_949
*396 FILLER_0_0_953
*397 FILLER_0_0_965
*398 FILLER_0_0_97
*399 FILLER_0_0_977
*400 FILLER_0_0_981
*401 FILLER_0_0_993
*402 FILLER_0_1000_1005
*403 FILLER_0_1000_1017
*404 FILLER_0_1000_1029
*405 FILLER_0_1000_1035
*406 FILLER_0_1000_1037
*407 FILLER_0_1000_1049
*408 FILLER_0_1000_1057
*409 FILLER_0_1000_109
*410 FILLER_0_1000_121
*411 FILLER_0_1000_133
*412 FILLER_0_1000_139
*413 FILLER_0_1000_141
*414 FILLER_0_1000_15
*415 FILLER_0_1000_153
*416 FILLER_0_1000_165
*417 FILLER_0_1000_177
*418 FILLER_0_1000_189
*419 FILLER_0_1000_195
*420 FILLER_0_1000_197
*421 FILLER_0_1000_209
*422 FILLER_0_1000_221
*423 FILLER_0_1000_233
*424 FILLER_0_1000_245
*425 FILLER_0_1000_251
*426 FILLER_0_1000_253
*427 FILLER_0_1000_265
*428 FILLER_0_1000_27
*429 FILLER_0_1000_277
*430 FILLER_0_1000_289
*431 FILLER_0_1000_29
*432 FILLER_0_1000_3
*433 FILLER_0_1000_301
*434 FILLER_0_1000_307
*435 FILLER_0_1000_309
*436 FILLER_0_1000_321
*437 FILLER_0_1000_333
*438 FILLER_0_1000_345
*439 FILLER_0_1000_357
*440 FILLER_0_1000_363
*441 FILLER_0_1000_365
*442 FILLER_0_1000_377
*443 FILLER_0_1000_389
*444 FILLER_0_1000_401
*445 FILLER_0_1000_41
*446 FILLER_0_1000_413
*447 FILLER_0_1000_419
*448 FILLER_0_1000_421
*449 FILLER_0_1000_433
*450 FILLER_0_1000_445
*451 FILLER_0_1000_457
*452 FILLER_0_1000_469
*453 FILLER_0_1000_475
*454 FILLER_0_1000_477
*455 FILLER_0_1000_489
*456 FILLER_0_1000_501
*457 FILLER_0_1000_513
*458 FILLER_0_1000_525
*459 FILLER_0_1000_53
*460 FILLER_0_1000_531
*461 FILLER_0_1000_533
*462 FILLER_0_1000_545
*463 FILLER_0_1000_557
*464 FILLER_0_1000_569
*465 FILLER_0_1000_581
*466 FILLER_0_1000_587
*467 FILLER_0_1000_589
*468 FILLER_0_1000_601
*469 FILLER_0_1000_613
*470 FILLER_0_1000_625
*471 FILLER_0_1000_637
*472 FILLER_0_1000_643
*473 FILLER_0_1000_645
*474 FILLER_0_1000_65
*475 FILLER_0_1000_657
*476 FILLER_0_1000_669
*477 FILLER_0_1000_681
*478 FILLER_0_1000_693
*479 FILLER_0_1000_699
*480 FILLER_0_1000_701
*481 FILLER_0_1000_713
*482 FILLER_0_1000_725
*483 FILLER_0_1000_737
*484 FILLER_0_1000_749
*485 FILLER_0_1000_755
*486 FILLER_0_1000_757
*487 FILLER_0_1000_769
*488 FILLER_0_1000_77
*489 FILLER_0_1000_781
*490 FILLER_0_1000_793
*491 FILLER_0_1000_805
*492 FILLER_0_1000_811
*493 FILLER_0_1000_813
*494 FILLER_0_1000_825
*495 FILLER_0_1000_83
*496 FILLER_0_1000_837
*497 FILLER_0_1000_849
*498 FILLER_0_1000_85
*499 FILLER_0_1000_861
*500 FILLER_0_1000_867
*501 FILLER_0_1000_869
*502 FILLER_0_1000_881
*503 FILLER_0_1000_893
*504 FILLER_0_1000_905
*505 FILLER_0_1000_917
*506 FILLER_0_1000_923
*507 FILLER_0_1000_925
*508 FILLER_0_1000_937
*509 FILLER_0_1000_949
*510 FILLER_0_1000_961
*511 FILLER_0_1000_97
*512 FILLER_0_1000_973
*513 FILLER_0_1000_979
*514 FILLER_0_1000_981
*515 FILLER_0_1000_993
*516 FILLER_0_1001_1001
*517 FILLER_0_1001_1007
*518 FILLER_0_1001_1009
*519 FILLER_0_1001_1021
*520 FILLER_0_1001_1033
*521 FILLER_0_1001_1045
*522 FILLER_0_1001_105
*523 FILLER_0_1001_1057
*524 FILLER_0_1001_111
*525 FILLER_0_1001_113
*526 FILLER_0_1001_125
*527 FILLER_0_1001_137
*528 FILLER_0_1001_149
*529 FILLER_0_1001_15
*530 FILLER_0_1001_161
*531 FILLER_0_1001_167
*532 FILLER_0_1001_169
*533 FILLER_0_1001_181
*534 FILLER_0_1001_193
*535 FILLER_0_1001_205
*536 FILLER_0_1001_217
*537 FILLER_0_1001_223
*538 FILLER_0_1001_225
*539 FILLER_0_1001_237
*540 FILLER_0_1001_249
*541 FILLER_0_1001_261
*542 FILLER_0_1001_27
*543 FILLER_0_1001_273
*544 FILLER_0_1001_279
*545 FILLER_0_1001_281
*546 FILLER_0_1001_293
*547 FILLER_0_1001_3
*548 FILLER_0_1001_305
*549 FILLER_0_1001_317
*550 FILLER_0_1001_329
*551 FILLER_0_1001_335
*552 FILLER_0_1001_337
*553 FILLER_0_1001_349
*554 FILLER_0_1001_361
*555 FILLER_0_1001_373
*556 FILLER_0_1001_385
*557 FILLER_0_1001_39
*558 FILLER_0_1001_391
*559 FILLER_0_1001_393
*560 FILLER_0_1001_405
*561 FILLER_0_1001_417
*562 FILLER_0_1001_429
*563 FILLER_0_1001_441
*564 FILLER_0_1001_447
*565 FILLER_0_1001_449
*566 FILLER_0_1001_461
*567 FILLER_0_1001_473
*568 FILLER_0_1001_485
*569 FILLER_0_1001_497
*570 FILLER_0_1001_503
*571 FILLER_0_1001_505
*572 FILLER_0_1001_51
*573 FILLER_0_1001_517
*574 FILLER_0_1001_529
*575 FILLER_0_1001_541
*576 FILLER_0_1001_55
*577 FILLER_0_1001_553
*578 FILLER_0_1001_559
*579 FILLER_0_1001_561
*580 FILLER_0_1001_57
*581 FILLER_0_1001_573
*582 FILLER_0_1001_585
*583 FILLER_0_1001_597
*584 FILLER_0_1001_609
*585 FILLER_0_1001_615
*586 FILLER_0_1001_617
*587 FILLER_0_1001_629
*588 FILLER_0_1001_641
*589 FILLER_0_1001_653
*590 FILLER_0_1001_665
*591 FILLER_0_1001_671
*592 FILLER_0_1001_673
*593 FILLER_0_1001_685
*594 FILLER_0_1001_69
*595 FILLER_0_1001_697
*596 FILLER_0_1001_709
*597 FILLER_0_1001_721
*598 FILLER_0_1001_727
*599 FILLER_0_1001_729
*600 FILLER_0_1001_741
*601 FILLER_0_1001_753
*602 FILLER_0_1001_765
*603 FILLER_0_1001_777
*604 FILLER_0_1001_783
*605 FILLER_0_1001_785
*606 FILLER_0_1001_797
*607 FILLER_0_1001_809
*608 FILLER_0_1001_81
*609 FILLER_0_1001_821
*610 FILLER_0_1001_833
*611 FILLER_0_1001_839
*612 FILLER_0_1001_841
*613 FILLER_0_1001_853
*614 FILLER_0_1001_865
*615 FILLER_0_1001_877
*616 FILLER_0_1001_889
*617 FILLER_0_1001_895
*618 FILLER_0_1001_897
*619 FILLER_0_1001_909
*620 FILLER_0_1001_921
*621 FILLER_0_1001_93
*622 FILLER_0_1001_933
*623 FILLER_0_1001_945
*624 FILLER_0_1001_951
*625 FILLER_0_1001_953
*626 FILLER_0_1001_965
*627 FILLER_0_1001_977
*628 FILLER_0_1001_989
*629 FILLER_0_1002_1005
*630 FILLER_0_1002_1017
*631 FILLER_0_1002_1029
*632 FILLER_0_1002_1035
*633 FILLER_0_1002_1037
*634 FILLER_0_1002_1049
*635 FILLER_0_1002_1057
*636 FILLER_0_1002_109
*637 FILLER_0_1002_121
*638 FILLER_0_1002_133
*639 FILLER_0_1002_139
*640 FILLER_0_1002_141
*641 FILLER_0_1002_15
*642 FILLER_0_1002_153
*643 FILLER_0_1002_165
*644 FILLER_0_1002_177
*645 FILLER_0_1002_189
*646 FILLER_0_1002_195
*647 FILLER_0_1002_197
*648 FILLER_0_1002_209
*649 FILLER_0_1002_221
*650 FILLER_0_1002_233
*651 FILLER_0_1002_245
*652 FILLER_0_1002_251
*653 FILLER_0_1002_253
*654 FILLER_0_1002_265
*655 FILLER_0_1002_27
*656 FILLER_0_1002_277
*657 FILLER_0_1002_289
*658 FILLER_0_1002_29
*659 FILLER_0_1002_3
*660 FILLER_0_1002_301
*661 FILLER_0_1002_307
*662 FILLER_0_1002_309
*663 FILLER_0_1002_321
*664 FILLER_0_1002_333
*665 FILLER_0_1002_345
*666 FILLER_0_1002_357
*667 FILLER_0_1002_363
*668 FILLER_0_1002_365
*669 FILLER_0_1002_377
*670 FILLER_0_1002_389
*671 FILLER_0_1002_401
*672 FILLER_0_1002_41
*673 FILLER_0_1002_413
*674 FILLER_0_1002_419
*675 FILLER_0_1002_421
*676 FILLER_0_1002_433
*677 FILLER_0_1002_445
*678 FILLER_0_1002_457
*679 FILLER_0_1002_469
*680 FILLER_0_1002_475
*681 FILLER_0_1002_477
*682 FILLER_0_1002_489
*683 FILLER_0_1002_501
*684 FILLER_0_1002_513
*685 FILLER_0_1002_525
*686 FILLER_0_1002_53
*687 FILLER_0_1002_531
*688 FILLER_0_1002_533
*689 FILLER_0_1002_545
*690 FILLER_0_1002_557
*691 FILLER_0_1002_569
*692 FILLER_0_1002_581
*693 FILLER_0_1002_587
*694 FILLER_0_1002_589
*695 FILLER_0_1002_601
*696 FILLER_0_1002_613
*697 FILLER_0_1002_625
*698 FILLER_0_1002_637
*699 FILLER_0_1002_643
*700 FILLER_0_1002_645
*701 FILLER_0_1002_65
*702 FILLER_0_1002_657
*703 FILLER_0_1002_669
*704 FILLER_0_1002_681
*705 FILLER_0_1002_693
*706 FILLER_0_1002_699
*707 FILLER_0_1002_701
*708 FILLER_0_1002_713
*709 FILLER_0_1002_725
*710 FILLER_0_1002_737
*711 FILLER_0_1002_749
*712 FILLER_0_1002_755
*713 FILLER_0_1002_757
*714 FILLER_0_1002_769
*715 FILLER_0_1002_77
*716 FILLER_0_1002_781
*717 FILLER_0_1002_793
*718 FILLER_0_1002_805
*719 FILLER_0_1002_811
*720 FILLER_0_1002_813
*721 FILLER_0_1002_825
*722 FILLER_0_1002_83
*723 FILLER_0_1002_837
*724 FILLER_0_1002_849
*725 FILLER_0_1002_85
*726 FILLER_0_1002_861
*727 FILLER_0_1002_867
*728 FILLER_0_1002_869
*729 FILLER_0_1002_881
*730 FILLER_0_1002_893
*731 FILLER_0_1002_905
*732 FILLER_0_1002_917
*733 FILLER_0_1002_923
*734 FILLER_0_1002_925
*735 FILLER_0_1002_937
*736 FILLER_0_1002_949
*737 FILLER_0_1002_961
*738 FILLER_0_1002_97
*739 FILLER_0_1002_973
*740 FILLER_0_1002_979
*741 FILLER_0_1002_981
*742 FILLER_0_1002_993
*743 FILLER_0_1003_1001
*744 FILLER_0_1003_1007
*745 FILLER_0_1003_1009
*746 FILLER_0_1003_1021
*747 FILLER_0_1003_1033
*748 FILLER_0_1003_1045
*749 FILLER_0_1003_105
*750 FILLER_0_1003_1057
*751 FILLER_0_1003_111
*752 FILLER_0_1003_113
*753 FILLER_0_1003_125
*754 FILLER_0_1003_137
*755 FILLER_0_1003_149
*756 FILLER_0_1003_15
*757 FILLER_0_1003_161
*758 FILLER_0_1003_167
*759 FILLER_0_1003_169
*760 FILLER_0_1003_181
*761 FILLER_0_1003_193
*762 FILLER_0_1003_205
*763 FILLER_0_1003_217
*764 FILLER_0_1003_223
*765 FILLER_0_1003_225
*766 FILLER_0_1003_237
*767 FILLER_0_1003_249
*768 FILLER_0_1003_261
*769 FILLER_0_1003_27
*770 FILLER_0_1003_273
*771 FILLER_0_1003_279
*772 FILLER_0_1003_281
*773 FILLER_0_1003_293
*774 FILLER_0_1003_3
*775 FILLER_0_1003_305
*776 FILLER_0_1003_317
*777 FILLER_0_1003_329
*778 FILLER_0_1003_335
*779 FILLER_0_1003_337
*780 FILLER_0_1003_349
*781 FILLER_0_1003_361
*782 FILLER_0_1003_373
*783 FILLER_0_1003_385
*784 FILLER_0_1003_39
*785 FILLER_0_1003_391
*786 FILLER_0_1003_393
*787 FILLER_0_1003_405
*788 FILLER_0_1003_417
*789 FILLER_0_1003_429
*790 FILLER_0_1003_441
*791 FILLER_0_1003_447
*792 FILLER_0_1003_449
*793 FILLER_0_1003_461
*794 FILLER_0_1003_473
*795 FILLER_0_1003_485
*796 FILLER_0_1003_497
*797 FILLER_0_1003_503
*798 FILLER_0_1003_505
*799 FILLER_0_1003_51
*800 FILLER_0_1003_517
*801 FILLER_0_1003_529
*802 FILLER_0_1003_541
*803 FILLER_0_1003_55
*804 FILLER_0_1003_553
*805 FILLER_0_1003_559
*806 FILLER_0_1003_561
*807 FILLER_0_1003_57
*808 FILLER_0_1003_573
*809 FILLER_0_1003_585
*810 FILLER_0_1003_597
*811 FILLER_0_1003_609
*812 FILLER_0_1003_615
*813 FILLER_0_1003_617
*814 FILLER_0_1003_629
*815 FILLER_0_1003_641
*816 FILLER_0_1003_653
*817 FILLER_0_1003_665
*818 FILLER_0_1003_671
*819 FILLER_0_1003_673
*820 FILLER_0_1003_685
*821 FILLER_0_1003_69
*822 FILLER_0_1003_697
*823 FILLER_0_1003_709
*824 FILLER_0_1003_721
*825 FILLER_0_1003_727
*826 FILLER_0_1003_729
*827 FILLER_0_1003_741
*828 FILLER_0_1003_753
*829 FILLER_0_1003_765
*830 FILLER_0_1003_777
*831 FILLER_0_1003_783
*832 FILLER_0_1003_785
*833 FILLER_0_1003_797
*834 FILLER_0_1003_809
*835 FILLER_0_1003_81
*836 FILLER_0_1003_821
*837 FILLER_0_1003_833
*838 FILLER_0_1003_839
*839 FILLER_0_1003_841
*840 FILLER_0_1003_853
*841 FILLER_0_1003_865
*842 FILLER_0_1003_877
*843 FILLER_0_1003_889
*844 FILLER_0_1003_895
*845 FILLER_0_1003_897
*846 FILLER_0_1003_909
*847 FILLER_0_1003_921
*848 FILLER_0_1003_93
*849 FILLER_0_1003_933
*850 FILLER_0_1003_945
*851 FILLER_0_1003_951
*852 FILLER_0_1003_953
*853 FILLER_0_1003_965
*854 FILLER_0_1003_977
*855 FILLER_0_1003_989
*856 FILLER_0_1004_1005
*857 FILLER_0_1004_1017
*858 FILLER_0_1004_1029
*859 FILLER_0_1004_1035
*860 FILLER_0_1004_1037
*861 FILLER_0_1004_1049
*862 FILLER_0_1004_1057
*863 FILLER_0_1004_109
*864 FILLER_0_1004_121
*865 FILLER_0_1004_133
*866 FILLER_0_1004_139
*867 FILLER_0_1004_141
*868 FILLER_0_1004_15
*869 FILLER_0_1004_153
*870 FILLER_0_1004_165
*871 FILLER_0_1004_177
*872 FILLER_0_1004_189
*873 FILLER_0_1004_195
*874 FILLER_0_1004_197
*875 FILLER_0_1004_209
*876 FILLER_0_1004_221
*877 FILLER_0_1004_233
*878 FILLER_0_1004_245
*879 FILLER_0_1004_251
*880 FILLER_0_1004_253
*881 FILLER_0_1004_265
*882 FILLER_0_1004_27
*883 FILLER_0_1004_277
*884 FILLER_0_1004_289
*885 FILLER_0_1004_29
*886 FILLER_0_1004_3
*887 FILLER_0_1004_301
*888 FILLER_0_1004_307
*889 FILLER_0_1004_309
*890 FILLER_0_1004_321
*891 FILLER_0_1004_333
*892 FILLER_0_1004_345
*893 FILLER_0_1004_357
*894 FILLER_0_1004_363
*895 FILLER_0_1004_365
*896 FILLER_0_1004_377
*897 FILLER_0_1004_389
*898 FILLER_0_1004_401
*899 FILLER_0_1004_41
*900 FILLER_0_1004_413
*901 FILLER_0_1004_419
*902 FILLER_0_1004_421
*903 FILLER_0_1004_433
*904 FILLER_0_1004_445
*905 FILLER_0_1004_457
*906 FILLER_0_1004_469
*907 FILLER_0_1004_475
*908 FILLER_0_1004_477
*909 FILLER_0_1004_489
*910 FILLER_0_1004_501
*911 FILLER_0_1004_513
*912 FILLER_0_1004_525
*913 FILLER_0_1004_53
*914 FILLER_0_1004_531
*915 FILLER_0_1004_533
*916 FILLER_0_1004_545
*917 FILLER_0_1004_557
*918 FILLER_0_1004_569
*919 FILLER_0_1004_581
*920 FILLER_0_1004_587
*921 FILLER_0_1004_589
*922 FILLER_0_1004_601
*923 FILLER_0_1004_613
*924 FILLER_0_1004_625
*925 FILLER_0_1004_637
*926 FILLER_0_1004_643
*927 FILLER_0_1004_645
*928 FILLER_0_1004_65
*929 FILLER_0_1004_657
*930 FILLER_0_1004_669
*931 FILLER_0_1004_681
*932 FILLER_0_1004_693
*933 FILLER_0_1004_699
*934 FILLER_0_1004_701
*935 FILLER_0_1004_713
*936 FILLER_0_1004_725
*937 FILLER_0_1004_737
*938 FILLER_0_1004_749
*939 FILLER_0_1004_755
*940 FILLER_0_1004_757
*941 FILLER_0_1004_769
*942 FILLER_0_1004_77
*943 FILLER_0_1004_781
*944 FILLER_0_1004_793
*945 FILLER_0_1004_805
*946 FILLER_0_1004_811
*947 FILLER_0_1004_813
*948 FILLER_0_1004_825
*949 FILLER_0_1004_83
*950 FILLER_0_1004_837
*951 FILLER_0_1004_849
*952 FILLER_0_1004_85
*953 FILLER_0_1004_861
*954 FILLER_0_1004_867
*955 FILLER_0_1004_869
*956 FILLER_0_1004_881
*957 FILLER_0_1004_893
*958 FILLER_0_1004_905
*959 FILLER_0_1004_917
*960 FILLER_0_1004_923
*961 FILLER_0_1004_925
*962 FILLER_0_1004_937
*963 FILLER_0_1004_949
*964 FILLER_0_1004_961
*965 FILLER_0_1004_97
*966 FILLER_0_1004_973
*967 FILLER_0_1004_979
*968 FILLER_0_1004_981
*969 FILLER_0_1004_993
*970 FILLER_0_1005_1001
*971 FILLER_0_1005_1007
*972 FILLER_0_1005_1009
*973 FILLER_0_1005_1021
*974 FILLER_0_1005_1033
*975 FILLER_0_1005_1045
*976 FILLER_0_1005_105
*977 FILLER_0_1005_1057
*978 FILLER_0_1005_111
*979 FILLER_0_1005_113
*980 FILLER_0_1005_125
*981 FILLER_0_1005_137
*982 FILLER_0_1005_149
*983 FILLER_0_1005_15
*984 FILLER_0_1005_161
*985 FILLER_0_1005_167
*986 FILLER_0_1005_169
*987 FILLER_0_1005_181
*988 FILLER_0_1005_193
*989 FILLER_0_1005_205
*990 FILLER_0_1005_217
*991 FILLER_0_1005_223
*992 FILLER_0_1005_225
*993 FILLER_0_1005_237
*994 FILLER_0_1005_249
*995 FILLER_0_1005_261
*996 FILLER_0_1005_27
*997 FILLER_0_1005_273
*998 FILLER_0_1005_279
*999 FILLER_0_1005_281
*1000 FILLER_0_1005_293
*1001 FILLER_0_1005_3
*1002 FILLER_0_1005_305
*1003 FILLER_0_1005_317
*1004 FILLER_0_1005_329
*1005 FILLER_0_1005_335
*1006 FILLER_0_1005_337
*1007 FILLER_0_1005_349
*1008 FILLER_0_1005_361
*1009 FILLER_0_1005_373
*1010 FILLER_0_1005_385
*1011 FILLER_0_1005_39
*1012 FILLER_0_1005_391
*1013 FILLER_0_1005_393
*1014 FILLER_0_1005_405
*1015 FILLER_0_1005_417
*1016 FILLER_0_1005_429
*1017 FILLER_0_1005_441
*1018 FILLER_0_1005_447
*1019 FILLER_0_1005_449
*1020 FILLER_0_1005_461
*1021 FILLER_0_1005_473
*1022 FILLER_0_1005_485
*1023 FILLER_0_1005_497
*1024 FILLER_0_1005_503
*1025 FILLER_0_1005_505
*1026 FILLER_0_1005_51
*1027 FILLER_0_1005_517
*1028 FILLER_0_1005_529
*1029 FILLER_0_1005_541
*1030 FILLER_0_1005_55
*1031 FILLER_0_1005_553
*1032 FILLER_0_1005_559
*1033 FILLER_0_1005_561
*1034 FILLER_0_1005_57
*1035 FILLER_0_1005_573
*1036 FILLER_0_1005_585
*1037 FILLER_0_1005_597
*1038 FILLER_0_1005_609
*1039 FILLER_0_1005_615
*1040 FILLER_0_1005_617
*1041 FILLER_0_1005_629
*1042 FILLER_0_1005_641
*1043 FILLER_0_1005_653
*1044 FILLER_0_1005_665
*1045 FILLER_0_1005_671
*1046 FILLER_0_1005_673
*1047 FILLER_0_1005_685
*1048 FILLER_0_1005_69
*1049 FILLER_0_1005_697
*1050 FILLER_0_1005_709
*1051 FILLER_0_1005_721
*1052 FILLER_0_1005_727
*1053 FILLER_0_1005_729
*1054 FILLER_0_1005_741
*1055 FILLER_0_1005_753
*1056 FILLER_0_1005_765
*1057 FILLER_0_1005_777
*1058 FILLER_0_1005_783
*1059 FILLER_0_1005_785
*1060 FILLER_0_1005_797
*1061 FILLER_0_1005_809
*1062 FILLER_0_1005_81
*1063 FILLER_0_1005_821
*1064 FILLER_0_1005_833
*1065 FILLER_0_1005_839
*1066 FILLER_0_1005_841
*1067 FILLER_0_1005_853
*1068 FILLER_0_1005_865
*1069 FILLER_0_1005_877
*1070 FILLER_0_1005_889
*1071 FILLER_0_1005_895
*1072 FILLER_0_1005_897
*1073 FILLER_0_1005_909
*1074 FILLER_0_1005_921
*1075 FILLER_0_1005_93
*1076 FILLER_0_1005_933
*1077 FILLER_0_1005_945
*1078 FILLER_0_1005_951
*1079 FILLER_0_1005_953
*1080 FILLER_0_1005_965
*1081 FILLER_0_1005_977
*1082 FILLER_0_1005_989
*1083 FILLER_0_1006_1005
*1084 FILLER_0_1006_1017
*1085 FILLER_0_1006_1029
*1086 FILLER_0_1006_1035
*1087 FILLER_0_1006_1037
*1088 FILLER_0_1006_1049
*1089 FILLER_0_1006_1057
*1090 FILLER_0_1006_109
*1091 FILLER_0_1006_121
*1092 FILLER_0_1006_133
*1093 FILLER_0_1006_139
*1094 FILLER_0_1006_141
*1095 FILLER_0_1006_15
*1096 FILLER_0_1006_153
*1097 FILLER_0_1006_165
*1098 FILLER_0_1006_177
*1099 FILLER_0_1006_189
*1100 FILLER_0_1006_195
*1101 FILLER_0_1006_197
*1102 FILLER_0_1006_209
*1103 FILLER_0_1006_221
*1104 FILLER_0_1006_233
*1105 FILLER_0_1006_245
*1106 FILLER_0_1006_251
*1107 FILLER_0_1006_253
*1108 FILLER_0_1006_265
*1109 FILLER_0_1006_27
*1110 FILLER_0_1006_277
*1111 FILLER_0_1006_289
*1112 FILLER_0_1006_29
*1113 FILLER_0_1006_3
*1114 FILLER_0_1006_301
*1115 FILLER_0_1006_307
*1116 FILLER_0_1006_309
*1117 FILLER_0_1006_321
*1118 FILLER_0_1006_333
*1119 FILLER_0_1006_345
*1120 FILLER_0_1006_357
*1121 FILLER_0_1006_363
*1122 FILLER_0_1006_365
*1123 FILLER_0_1006_377
*1124 FILLER_0_1006_389
*1125 FILLER_0_1006_401
*1126 FILLER_0_1006_41
*1127 FILLER_0_1006_413
*1128 FILLER_0_1006_419
*1129 FILLER_0_1006_421
*1130 FILLER_0_1006_433
*1131 FILLER_0_1006_445
*1132 FILLER_0_1006_457
*1133 FILLER_0_1006_469
*1134 FILLER_0_1006_475
*1135 FILLER_0_1006_477
*1136 FILLER_0_1006_489
*1137 FILLER_0_1006_501
*1138 FILLER_0_1006_513
*1139 FILLER_0_1006_525
*1140 FILLER_0_1006_53
*1141 FILLER_0_1006_531
*1142 FILLER_0_1006_533
*1143 FILLER_0_1006_545
*1144 FILLER_0_1006_557
*1145 FILLER_0_1006_569
*1146 FILLER_0_1006_581
*1147 FILLER_0_1006_587
*1148 FILLER_0_1006_589
*1149 FILLER_0_1006_601
*1150 FILLER_0_1006_613
*1151 FILLER_0_1006_625
*1152 FILLER_0_1006_637
*1153 FILLER_0_1006_643
*1154 FILLER_0_1006_645
*1155 FILLER_0_1006_65
*1156 FILLER_0_1006_657
*1157 FILLER_0_1006_669
*1158 FILLER_0_1006_681
*1159 FILLER_0_1006_693
*1160 FILLER_0_1006_699
*1161 FILLER_0_1006_701
*1162 FILLER_0_1006_713
*1163 FILLER_0_1006_725
*1164 FILLER_0_1006_737
*1165 FILLER_0_1006_749
*1166 FILLER_0_1006_755
*1167 FILLER_0_1006_757
*1168 FILLER_0_1006_769
*1169 FILLER_0_1006_77
*1170 FILLER_0_1006_781
*1171 FILLER_0_1006_793
*1172 FILLER_0_1006_805
*1173 FILLER_0_1006_811
*1174 FILLER_0_1006_813
*1175 FILLER_0_1006_825
*1176 FILLER_0_1006_83
*1177 FILLER_0_1006_837
*1178 FILLER_0_1006_849
*1179 FILLER_0_1006_85
*1180 FILLER_0_1006_861
*1181 FILLER_0_1006_867
*1182 FILLER_0_1006_869
*1183 FILLER_0_1006_881
*1184 FILLER_0_1006_893
*1185 FILLER_0_1006_905
*1186 FILLER_0_1006_917
*1187 FILLER_0_1006_923
*1188 FILLER_0_1006_925
*1189 FILLER_0_1006_937
*1190 FILLER_0_1006_949
*1191 FILLER_0_1006_961
*1192 FILLER_0_1006_97
*1193 FILLER_0_1006_973
*1194 FILLER_0_1006_979
*1195 FILLER_0_1006_981
*1196 FILLER_0_1006_993
*1197 FILLER_0_1007_1001
*1198 FILLER_0_1007_1007
*1199 FILLER_0_1007_1009
*1200 FILLER_0_1007_1021
*1201 FILLER_0_1007_1033
*1202 FILLER_0_1007_1045
*1203 FILLER_0_1007_105
*1204 FILLER_0_1007_1057
*1205 FILLER_0_1007_111
*1206 FILLER_0_1007_113
*1207 FILLER_0_1007_125
*1208 FILLER_0_1007_137
*1209 FILLER_0_1007_149
*1210 FILLER_0_1007_15
*1211 FILLER_0_1007_161
*1212 FILLER_0_1007_167
*1213 FILLER_0_1007_169
*1214 FILLER_0_1007_181
*1215 FILLER_0_1007_193
*1216 FILLER_0_1007_205
*1217 FILLER_0_1007_217
*1218 FILLER_0_1007_223
*1219 FILLER_0_1007_225
*1220 FILLER_0_1007_237
*1221 FILLER_0_1007_249
*1222 FILLER_0_1007_261
*1223 FILLER_0_1007_27
*1224 FILLER_0_1007_273
*1225 FILLER_0_1007_279
*1226 FILLER_0_1007_281
*1227 FILLER_0_1007_293
*1228 FILLER_0_1007_3
*1229 FILLER_0_1007_305
*1230 FILLER_0_1007_317
*1231 FILLER_0_1007_329
*1232 FILLER_0_1007_335
*1233 FILLER_0_1007_337
*1234 FILLER_0_1007_349
*1235 FILLER_0_1007_361
*1236 FILLER_0_1007_373
*1237 FILLER_0_1007_385
*1238 FILLER_0_1007_39
*1239 FILLER_0_1007_391
*1240 FILLER_0_1007_393
*1241 FILLER_0_1007_405
*1242 FILLER_0_1007_417
*1243 FILLER_0_1007_429
*1244 FILLER_0_1007_441
*1245 FILLER_0_1007_447
*1246 FILLER_0_1007_449
*1247 FILLER_0_1007_461
*1248 FILLER_0_1007_473
*1249 FILLER_0_1007_485
*1250 FILLER_0_1007_497
*1251 FILLER_0_1007_503
*1252 FILLER_0_1007_505
*1253 FILLER_0_1007_51
*1254 FILLER_0_1007_517
*1255 FILLER_0_1007_529
*1256 FILLER_0_1007_541
*1257 FILLER_0_1007_55
*1258 FILLER_0_1007_553
*1259 FILLER_0_1007_559
*1260 FILLER_0_1007_561
*1261 FILLER_0_1007_57
*1262 FILLER_0_1007_573
*1263 FILLER_0_1007_585
*1264 FILLER_0_1007_597
*1265 FILLER_0_1007_609
*1266 FILLER_0_1007_615
*1267 FILLER_0_1007_617
*1268 FILLER_0_1007_629
*1269 FILLER_0_1007_641
*1270 FILLER_0_1007_653
*1271 FILLER_0_1007_665
*1272 FILLER_0_1007_671
*1273 FILLER_0_1007_673
*1274 FILLER_0_1007_685
*1275 FILLER_0_1007_69
*1276 FILLER_0_1007_697
*1277 FILLER_0_1007_709
*1278 FILLER_0_1007_721
*1279 FILLER_0_1007_727
*1280 FILLER_0_1007_729
*1281 FILLER_0_1007_741
*1282 FILLER_0_1007_753
*1283 FILLER_0_1007_765
*1284 FILLER_0_1007_777
*1285 FILLER_0_1007_783
*1286 FILLER_0_1007_785
*1287 FILLER_0_1007_797
*1288 FILLER_0_1007_809
*1289 FILLER_0_1007_81
*1290 FILLER_0_1007_821
*1291 FILLER_0_1007_833
*1292 FILLER_0_1007_839
*1293 FILLER_0_1007_841
*1294 FILLER_0_1007_853
*1295 FILLER_0_1007_865
*1296 FILLER_0_1007_877
*1297 FILLER_0_1007_889
*1298 FILLER_0_1007_895
*1299 FILLER_0_1007_897
*1300 FILLER_0_1007_909
*1301 FILLER_0_1007_921
*1302 FILLER_0_1007_93
*1303 FILLER_0_1007_933
*1304 FILLER_0_1007_945
*1305 FILLER_0_1007_951
*1306 FILLER_0_1007_953
*1307 FILLER_0_1007_965
*1308 FILLER_0_1007_977
*1309 FILLER_0_1007_989
*1310 FILLER_0_1008_1005
*1311 FILLER_0_1008_1017
*1312 FILLER_0_1008_1029
*1313 FILLER_0_1008_1035
*1314 FILLER_0_1008_1037
*1315 FILLER_0_1008_1049
*1316 FILLER_0_1008_1057
*1317 FILLER_0_1008_109
*1318 FILLER_0_1008_121
*1319 FILLER_0_1008_133
*1320 FILLER_0_1008_139
*1321 FILLER_0_1008_141
*1322 FILLER_0_1008_15
*1323 FILLER_0_1008_153
*1324 FILLER_0_1008_165
*1325 FILLER_0_1008_177
*1326 FILLER_0_1008_189
*1327 FILLER_0_1008_195
*1328 FILLER_0_1008_197
*1329 FILLER_0_1008_209
*1330 FILLER_0_1008_221
*1331 FILLER_0_1008_233
*1332 FILLER_0_1008_245
*1333 FILLER_0_1008_251
*1334 FILLER_0_1008_253
*1335 FILLER_0_1008_265
*1336 FILLER_0_1008_27
*1337 FILLER_0_1008_277
*1338 FILLER_0_1008_289
*1339 FILLER_0_1008_29
*1340 FILLER_0_1008_3
*1341 FILLER_0_1008_301
*1342 FILLER_0_1008_307
*1343 FILLER_0_1008_309
*1344 FILLER_0_1008_321
*1345 FILLER_0_1008_333
*1346 FILLER_0_1008_345
*1347 FILLER_0_1008_357
*1348 FILLER_0_1008_363
*1349 FILLER_0_1008_365
*1350 FILLER_0_1008_377
*1351 FILLER_0_1008_389
*1352 FILLER_0_1008_401
*1353 FILLER_0_1008_41
*1354 FILLER_0_1008_413
*1355 FILLER_0_1008_419